<?xml version="1.0" encoding="utf-8"?>
<!DOCTYPE population SYSTEM "http://www.matsim.org/files/dtd/population_v6.dtd">

<population>



<!-- ====================================================================== -->

	<person id="1">
		<plan selected="yes">
			<activity type="home" x="-129496.36230868737" y="198839.72826157464" end_time="11:00:00" >
			</activity>
			<leg mode="car">
			</leg>
			<activity type="shelter" x="-186798.2915003718" y="193973.81550095603" start_time="11:30:00" end_time="14:30:00" >
			</activity>
		</plan>

	</person>

<!-- ====================================================================== -->

	<person id="10">
		<plan selected="yes">
			<activity type="home" x="-129570.76790084608" y="198705.25642562172" end_time="11:00:00" >
			</activity>
			<leg mode="car">
			</leg>
			<activity type="shelter" x="-155300.67953153863" y="190537.179345035" start_time="11:30:00" end_time="14:30:00" >
			</activity>
		</plan>

	</person>

<!-- ====================================================================== -->

	<person id="100">
		<plan selected="yes">
			<activity type="home" x="-129545.96103762329" y="198747.05367478184" end_time="11:00:00" >
			</activity>
			<leg mode="car">
			</leg>
			<activity type="shelter" x="-156772.34509886507" y="195497.46516630892" start_time="11:30:00" end_time="14:30:00" >
			</activity>
		</plan>

	</person>

<!-- ====================================================================== -->

	<person id="1000">
		<plan selected="yes">
			<activity type="home" x="-129554.79379646693" y="198726.02607230048" end_time="11:00:00" >
			</activity>
			<leg mode="car">
			</leg>
			<activity type="shelter" x="-139095.36621895683" y="125060.47076642187" start_time="11:30:00" end_time="14:30:00" >
			</activity>
		</plan>

	</person>

<!-- ====================================================================== -->

	<person id="1001">
		<plan selected="yes">
			<activity type="home" x="-129496.4491671249" y="198847.48215028117" end_time="11:00:00" >
			</activity>
			<leg mode="car">
			</leg>
			<activity type="shelter" x="-155300.67953153863" y="190537.179345035" start_time="11:30:00" end_time="14:30:00" >
			</activity>
		</plan>

	</person>

<!-- ====================================================================== -->

	<person id="1002">
		<plan selected="yes">
			<activity type="home" x="-129521.737106709" y="198792.61169545425" end_time="11:00:00" >
			</activity>
			<leg mode="car">
			</leg>
			<activity type="shelter" x="-155300.67953153863" y="190537.179345035" start_time="11:30:00" end_time="14:30:00" >
			</activity>
		</plan>

	</person>

<!-- ====================================================================== -->

	<person id="1003">
		<plan selected="yes">
			<activity type="home" x="-129471.55178774096" y="198889.30691432994" end_time="11:00:00" >
			</activity>
			<leg mode="car">
			</leg>
			<activity type="shelter" x="-155300.67953153863" y="190537.179345035" start_time="11:30:00" end_time="14:30:00" >
			</activity>
		</plan>

	</person>

<!-- ====================================================================== -->

	<person id="1004">
		<plan selected="yes">
			<activity type="home" x="-129445.30271393483" y="198938.5587791465" end_time="11:00:00" >
			</activity>
			<leg mode="car">
			</leg>
			<activity type="shelter" x="-139095.36621895683" y="125060.47076642187" start_time="11:30:00" end_time="14:30:00" >
			</activity>
		</plan>

	</person>

<!-- ====================================================================== -->

	<person id="1005">
		<plan selected="yes">
			<activity type="home" x="-129472.6640191563" y="198891.41703050004" end_time="11:00:00" >
			</activity>
			<leg mode="car">
			</leg>
			<activity type="shelter" x="-139095.36621895683" y="125060.47076642187" start_time="11:30:00" end_time="14:30:00" >
			</activity>
		</plan>

	</person>

<!-- ====================================================================== -->

	<person id="1006">
		<plan selected="yes">
			<activity type="home" x="-129571.86762998468" y="198693.82101574252" end_time="11:00:00" >
			</activity>
			<leg mode="car">
			</leg>
			<activity type="shelter" x="-156772.34509886507" y="195497.46516630892" start_time="11:30:00" end_time="14:30:00" >
			</activity>
		</plan>

	</person>

<!-- ====================================================================== -->

	<person id="1007">
		<plan selected="yes">
			<activity type="home" x="-129499.60143453974" y="198839.81250710652" end_time="11:00:00" >
			</activity>
			<leg mode="car">
			</leg>
			<activity type="shelter" x="-139095.36621895683" y="125060.47076642187" start_time="11:30:00" end_time="14:30:00" >
			</activity>
		</plan>

	</person>

<!-- ====================================================================== -->

	<person id="1008">
		<plan selected="yes">
			<activity type="home" x="-129495.08184415693" y="198849.51464879053" end_time="11:00:00" >
			</activity>
			<leg mode="car">
			</leg>
			<activity type="shelter" x="-156772.34509886507" y="195497.46516630892" start_time="11:30:00" end_time="14:30:00" >
			</activity>
		</plan>

	</person>

<!-- ====================================================================== -->

	<person id="1009">
		<plan selected="yes">
			<activity type="home" x="-129592.9709946934" y="198661.85161360647" end_time="11:00:00" >
			</activity>
			<leg mode="car">
			</leg>
			<activity type="shelter" x="-155300.67953153863" y="190537.179345035" start_time="11:30:00" end_time="14:30:00" >
			</activity>
		</plan>

	</person>

<!-- ====================================================================== -->

	<person id="101">
		<plan selected="yes">
			<activity type="home" x="-129455.95098676659" y="198921.6690181641" end_time="11:00:00" >
			</activity>
			<leg mode="car">
			</leg>
			<activity type="shelter" x="-145050.3686395875" y="151351.39774185978" start_time="11:30:00" end_time="14:30:00" >
			</activity>
		</plan>

	</person>

<!-- ====================================================================== -->

	<person id="1010">
		<plan selected="yes">
			<activity type="home" x="-129520.06389689882" y="198797.66686120318" end_time="11:00:00" >
			</activity>
			<leg mode="car">
			</leg>
			<activity type="shelter" x="-155300.67953153863" y="190537.179345035" start_time="11:30:00" end_time="14:30:00" >
			</activity>
		</plan>

	</person>

<!-- ====================================================================== -->

	<person id="1011">
		<plan selected="yes">
			<activity type="home" x="-129576.88481918504" y="198692.8397013752" end_time="11:00:00" >
			</activity>
			<leg mode="car">
			</leg>
			<activity type="shelter" x="-139095.36621895683" y="125060.47076642187" start_time="11:30:00" end_time="14:30:00" >
			</activity>
		</plan>

	</person>

<!-- ====================================================================== -->

	<person id="1012">
		<plan selected="yes">
			<activity type="home" x="-129461.6800208828" y="198907.73840713565" end_time="11:00:00" >
			</activity>
			<leg mode="car">
			</leg>
			<activity type="shelter" x="-139095.36621895683" y="125060.47076642187" start_time="11:30:00" end_time="14:30:00" >
			</activity>
		</plan>

	</person>

<!-- ====================================================================== -->

	<person id="1013">
		<plan selected="yes">
			<activity type="home" x="-129525.41895112475" y="198792.42809271583" end_time="11:00:00" >
			</activity>
			<leg mode="car">
			</leg>
			<activity type="shelter" x="-139095.36621895683" y="125060.47076642187" start_time="11:30:00" end_time="14:30:00" >
			</activity>
		</plan>

	</person>

<!-- ====================================================================== -->

	<person id="1014">
		<plan selected="yes">
			<activity type="home" x="-129497.95879188941" y="198834.3246738908" end_time="11:00:00" >
			</activity>
			<leg mode="car">
			</leg>
			<activity type="shelter" x="-139095.36621895683" y="125060.47076642187" start_time="11:30:00" end_time="14:30:00" >
			</activity>
		</plan>

	</person>

<!-- ====================================================================== -->

	<person id="1015">
		<plan selected="yes">
			<activity type="home" x="-129473.09868024073" y="198891.6257822562" end_time="11:00:00" >
			</activity>
			<leg mode="car">
			</leg>
			<activity type="shelter" x="-156772.34509886507" y="195497.46516630892" start_time="11:30:00" end_time="14:30:00" >
			</activity>
		</plan>

	</person>

<!-- ====================================================================== -->

	<person id="1016">
		<plan selected="yes">
			<activity type="home" x="-129514.4802309963" y="198812.90148046357" end_time="11:00:00" >
			</activity>
			<leg mode="car">
			</leg>
			<activity type="shelter" x="-155300.67953153863" y="190537.179345035" start_time="11:30:00" end_time="14:30:00" >
			</activity>
		</plan>

	</person>

<!-- ====================================================================== -->

	<person id="1017">
		<plan selected="yes">
			<activity type="home" x="-129543.00392112366" y="198754.90631845742" end_time="11:00:00" >
			</activity>
			<leg mode="car">
			</leg>
			<activity type="shelter" x="-156772.34509886507" y="195497.46516630892" start_time="11:30:00" end_time="14:30:00" >
			</activity>
		</plan>

	</person>

<!-- ====================================================================== -->

	<person id="1018">
		<plan selected="yes">
			<activity type="home" x="-129569.36568973439" y="198705.51457323856" end_time="11:00:00" >
			</activity>
			<leg mode="car">
			</leg>
			<activity type="shelter" x="-186798.2915003718" y="193973.81550095603" start_time="11:30:00" end_time="14:30:00" >
			</activity>
		</plan>

	</person>

<!-- ====================================================================== -->

	<person id="1019">
		<plan selected="yes">
			<activity type="home" x="-129541.36509752324" y="198753.97856504394" end_time="11:00:00" >
			</activity>
			<leg mode="car">
			</leg>
			<activity type="shelter" x="-155300.67953153863" y="190537.179345035" start_time="11:30:00" end_time="14:30:00" >
			</activity>
		</plan>

	</person>

<!-- ====================================================================== -->

	<person id="102">
		<plan selected="yes">
			<activity type="home" x="-129498.40907276399" y="198837.9097526781" end_time="11:00:00" >
			</activity>
			<leg mode="car">
			</leg>
			<activity type="shelter" x="-139095.36621895683" y="125060.47076642187" start_time="11:30:00" end_time="14:30:00" >
			</activity>
		</plan>

	</person>

<!-- ====================================================================== -->

	<person id="1020">
		<plan selected="yes">
			<activity type="home" x="-129537.01765645872" y="198764.39730880441" end_time="11:00:00" >
			</activity>
			<leg mode="car">
			</leg>
			<activity type="shelter" x="-156772.34509886507" y="195497.46516630892" start_time="11:30:00" end_time="14:30:00" >
			</activity>
		</plan>

	</person>

<!-- ====================================================================== -->

	<person id="1021">
		<plan selected="yes">
			<activity type="home" x="-129477.34099024317" y="198884.53526732698" end_time="11:00:00" >
			</activity>
			<leg mode="car">
			</leg>
			<activity type="shelter" x="-155300.67953153863" y="190537.179345035" start_time="11:30:00" end_time="14:30:00" >
			</activity>
		</plan>

	</person>

<!-- ====================================================================== -->

	<person id="1022">
		<plan selected="yes">
			<activity type="home" x="-129520.61153420426" y="198800.9129545151" end_time="11:00:00" >
			</activity>
			<leg mode="car">
			</leg>
			<activity type="shelter" x="-156772.34509886507" y="195497.46516630892" start_time="11:30:00" end_time="14:30:00" >
			</activity>
		</plan>

	</person>

<!-- ====================================================================== -->

	<person id="1023">
		<plan selected="yes">
			<activity type="home" x="-129552.77979919144" y="198729.9463555045" end_time="11:00:00" >
			</activity>
			<leg mode="car">
			</leg>
			<activity type="shelter" x="-139095.36621895683" y="125060.47076642187" start_time="11:30:00" end_time="14:30:00" >
			</activity>
		</plan>

	</person>

<!-- ====================================================================== -->

	<person id="1024">
		<plan selected="yes">
			<activity type="home" x="-129591.4804449179" y="198665.7858806615" end_time="11:00:00" >
			</activity>
			<leg mode="car">
			</leg>
			<activity type="shelter" x="-139095.36621895683" y="125060.47076642187" start_time="11:30:00" end_time="14:30:00" >
			</activity>
		</plan>

	</person>

<!-- ====================================================================== -->

	<person id="1025">
		<plan selected="yes">
			<activity type="home" x="-129480.94986873164" y="198877.22212260397" end_time="11:00:00" >
			</activity>
			<leg mode="car">
			</leg>
			<activity type="shelter" x="-186798.2915003718" y="193973.81550095603" start_time="11:30:00" end_time="14:30:00" >
			</activity>
		</plan>

	</person>

<!-- ====================================================================== -->

	<person id="1026">
		<plan selected="yes">
			<activity type="home" x="-129466.05163920573" y="198896.37391488685" end_time="11:00:00" >
			</activity>
			<leg mode="car">
			</leg>
			<activity type="shelter" x="-186798.2915003718" y="193973.81550095603" start_time="11:30:00" end_time="14:30:00" >
			</activity>
		</plan>

	</person>

<!-- ====================================================================== -->

	<person id="1027">
		<plan selected="yes">
			<activity type="home" x="-129473.799929226" y="198883.5011178845" end_time="11:00:00" >
			</activity>
			<leg mode="car">
			</leg>
			<activity type="shelter" x="-155300.67953153863" y="190537.179345035" start_time="11:30:00" end_time="14:30:00" >
			</activity>
		</plan>

	</person>

<!-- ====================================================================== -->

	<person id="1028">
		<plan selected="yes">
			<activity type="home" x="-129547.38386628531" y="198750.93335983536" end_time="11:00:00" >
			</activity>
			<leg mode="car">
			</leg>
			<activity type="shelter" x="-186798.2915003718" y="193973.81550095603" start_time="11:30:00" end_time="14:30:00" >
			</activity>
		</plan>

	</person>

<!-- ====================================================================== -->

	<person id="1029">
		<plan selected="yes">
			<activity type="home" x="-129516.37399968329" y="198799.86044452598" end_time="11:00:00" >
			</activity>
			<leg mode="car">
			</leg>
			<activity type="shelter" x="-139095.36621895683" y="125060.47076642187" start_time="11:30:00" end_time="14:30:00" >
			</activity>
		</plan>

	</person>

<!-- ====================================================================== -->

	<person id="103">
		<plan selected="yes">
			<activity type="home" x="-129450.67695565744" y="198930.84854925773" end_time="11:00:00" >
			</activity>
			<leg mode="car">
			</leg>
			<activity type="shelter" x="-145050.3686395875" y="151351.39774185978" start_time="11:30:00" end_time="14:30:00" >
			</activity>
		</plan>

	</person>

<!-- ====================================================================== -->

	<person id="1030">
		<plan selected="yes">
			<activity type="home" x="-129463.60753159595" y="198906.00530126103" end_time="11:00:00" >
			</activity>
			<leg mode="car">
			</leg>
			<activity type="shelter" x="-139095.36621895683" y="125060.47076642187" start_time="11:30:00" end_time="14:30:00" >
			</activity>
		</plan>

	</person>

<!-- ====================================================================== -->

	<person id="1031">
		<plan selected="yes">
			<activity type="home" x="-129514.22943801632" y="198810.89201640902" end_time="11:00:00" >
			</activity>
			<leg mode="car">
			</leg>
			<activity type="shelter" x="-139095.36621895683" y="125060.47076642187" start_time="11:30:00" end_time="14:30:00" >
			</activity>
		</plan>

	</person>

<!-- ====================================================================== -->

	<person id="1032">
		<plan selected="yes">
			<activity type="home" x="-129545.71846158245" y="198748.54879355995" end_time="11:00:00" >
			</activity>
			<leg mode="car">
			</leg>
			<activity type="shelter" x="-139095.36621895683" y="125060.47076642187" start_time="11:30:00" end_time="14:30:00" >
			</activity>
		</plan>

	</person>

<!-- ====================================================================== -->

	<person id="1033">
		<plan selected="yes">
			<activity type="home" x="-129555.77423341015" y="198722.55265231695" end_time="11:00:00" >
			</activity>
			<leg mode="car">
			</leg>
			<activity type="shelter" x="-186798.2915003718" y="193973.81550095603" start_time="11:30:00" end_time="14:30:00" >
			</activity>
		</plan>

	</person>

<!-- ====================================================================== -->

	<person id="1034">
		<plan selected="yes">
			<activity type="home" x="-129558.20966471171" y="198723.98870340158" end_time="11:00:00" >
			</activity>
			<leg mode="car">
			</leg>
			<activity type="shelter" x="-186798.2915003718" y="193973.81550095603" start_time="11:30:00" end_time="14:30:00" >
			</activity>
		</plan>

	</person>

<!-- ====================================================================== -->

	<person id="1035">
		<plan selected="yes">
			<activity type="home" x="-129449.47526464683" y="198928.81320712843" end_time="11:00:00" >
			</activity>
			<leg mode="car">
			</leg>
			<activity type="shelter" x="-186798.2915003718" y="193973.81550095603" start_time="11:30:00" end_time="14:30:00" >
			</activity>
		</plan>

	</person>

<!-- ====================================================================== -->

	<person id="1036">
		<plan selected="yes">
			<activity type="home" x="-129579.48589296041" y="198683.64691817085" end_time="11:00:00" >
			</activity>
			<leg mode="car">
			</leg>
			<activity type="shelter" x="-139095.36621895683" y="125060.47076642187" start_time="11:30:00" end_time="14:30:00" >
			</activity>
		</plan>

	</person>

<!-- ====================================================================== -->

	<person id="1037">
		<plan selected="yes">
			<activity type="home" x="-129477.11452916646" y="198874.69841699902" end_time="11:00:00" >
			</activity>
			<leg mode="car">
			</leg>
			<activity type="shelter" x="-155300.67953153863" y="190537.179345035" start_time="11:30:00" end_time="14:30:00" >
			</activity>
		</plan>

	</person>

<!-- ====================================================================== -->

	<person id="1038">
		<plan selected="yes">
			<activity type="home" x="-129499.97435389797" y="198839.7651456476" end_time="11:00:00" >
			</activity>
			<leg mode="car">
			</leg>
			<activity type="shelter" x="-139095.36621895683" y="125060.47076642187" start_time="11:30:00" end_time="14:30:00" >
			</activity>
		</plan>

	</person>

<!-- ====================================================================== -->

	<person id="1039">
		<plan selected="yes">
			<activity type="home" x="-129573.41609553905" y="198696.53832381216" end_time="11:00:00" >
			</activity>
			<leg mode="car">
			</leg>
			<activity type="shelter" x="-155300.67953153863" y="190537.179345035" start_time="11:30:00" end_time="14:30:00" >
			</activity>
		</plan>

	</person>

<!-- ====================================================================== -->

	<person id="104">
		<plan selected="yes">
			<activity type="home" x="-129587.02595295072" y="198670.96480832543" end_time="11:00:00" >
			</activity>
			<leg mode="car">
			</leg>
			<activity type="shelter" x="-155300.67953153863" y="190537.179345035" start_time="11:30:00" end_time="14:30:00" >
			</activity>
		</plan>

	</person>

<!-- ====================================================================== -->

	<person id="1040">
		<plan selected="yes">
			<activity type="home" x="-129465.93546039505" y="198895.0757707191" end_time="11:00:00" >
			</activity>
			<leg mode="car">
			</leg>
			<activity type="shelter" x="-155300.67953153863" y="190537.179345035" start_time="11:30:00" end_time="14:30:00" >
			</activity>
		</plan>

	</person>

<!-- ====================================================================== -->

	<person id="1041">
		<plan selected="yes">
			<activity type="home" x="-129567.44350585538" y="198703.60085061673" end_time="11:00:00" >
			</activity>
			<leg mode="car">
			</leg>
			<activity type="shelter" x="-155300.67953153863" y="190537.179345035" start_time="11:30:00" end_time="14:30:00" >
			</activity>
		</plan>

	</person>

<!-- ====================================================================== -->

	<person id="1042">
		<plan selected="yes">
			<activity type="home" x="-129471.86068187641" y="198887.82728085748" end_time="11:00:00" >
			</activity>
			<leg mode="car">
			</leg>
			<activity type="shelter" x="-139095.36621895683" y="125060.47076642187" start_time="11:30:00" end_time="14:30:00" >
			</activity>
		</plan>

	</person>

<!-- ====================================================================== -->

	<person id="1043">
		<plan selected="yes">
			<activity type="home" x="-129492.71761487516" y="198843.13832963942" end_time="11:00:00" >
			</activity>
			<leg mode="car">
			</leg>
			<activity type="shelter" x="-155300.67953153863" y="190537.179345035" start_time="11:30:00" end_time="14:30:00" >
			</activity>
		</plan>

	</person>

<!-- ====================================================================== -->

	<person id="1044">
		<plan selected="yes">
			<activity type="home" x="-129455.5159515437" y="198915.67411156636" end_time="11:00:00" >
			</activity>
			<leg mode="car">
			</leg>
			<activity type="shelter" x="-155300.67953153863" y="190537.179345035" start_time="11:30:00" end_time="14:30:00" >
			</activity>
		</plan>

	</person>

<!-- ====================================================================== -->

	<person id="1045">
		<plan selected="yes">
			<activity type="home" x="-129446.17348037154" y="198934.86650108747" end_time="11:00:00" >
			</activity>
			<leg mode="car">
			</leg>
			<activity type="shelter" x="-156772.34509886507" y="195497.46516630892" start_time="11:30:00" end_time="14:30:00" >
			</activity>
		</plan>

	</person>

<!-- ====================================================================== -->

	<person id="1046">
		<plan selected="yes">
			<activity type="home" x="-129574.45580821257" y="198693.62086942125" end_time="11:00:00" >
			</activity>
			<leg mode="car">
			</leg>
			<activity type="shelter" x="-155300.67953153863" y="190537.179345035" start_time="11:30:00" end_time="14:30:00" >
			</activity>
		</plan>

	</person>

<!-- ====================================================================== -->

	<person id="1047">
		<plan selected="yes">
			<activity type="home" x="-129473.31367132855" y="198889.3460237147" end_time="11:00:00" >
			</activity>
			<leg mode="car">
			</leg>
			<activity type="shelter" x="-186798.2915003718" y="193973.81550095603" start_time="11:30:00" end_time="14:30:00" >
			</activity>
		</plan>

	</person>

<!-- ====================================================================== -->

	<person id="1048">
		<plan selected="yes">
			<activity type="home" x="-129511.28040257556" y="198807.3912412945" end_time="11:00:00" >
			</activity>
			<leg mode="car">
			</leg>
			<activity type="shelter" x="-139095.36621895683" y="125060.47076642187" start_time="11:30:00" end_time="14:30:00" >
			</activity>
		</plan>

	</person>

<!-- ====================================================================== -->

	<person id="1049">
		<plan selected="yes">
			<activity type="home" x="-129480.30244917696" y="198877.13627789356" end_time="11:00:00" >
			</activity>
			<leg mode="car">
			</leg>
			<activity type="shelter" x="-139095.36621895683" y="125060.47076642187" start_time="11:30:00" end_time="14:30:00" >
			</activity>
		</plan>

	</person>

<!-- ====================================================================== -->

	<person id="105">
		<plan selected="yes">
			<activity type="home" x="-129546.23761673192" y="198748.26539946682" end_time="11:00:00" >
			</activity>
			<leg mode="car">
			</leg>
			<activity type="shelter" x="-155300.67953153863" y="190537.179345035" start_time="11:30:00" end_time="14:30:00" >
			</activity>
		</plan>

	</person>

<!-- ====================================================================== -->

	<person id="1050">
		<plan selected="yes">
			<activity type="home" x="-129535.03342560149" y="198770.45002949255" end_time="11:00:00" >
			</activity>
			<leg mode="car">
			</leg>
			<activity type="shelter" x="-156772.34509886507" y="195497.46516630892" start_time="11:30:00" end_time="14:30:00" >
			</activity>
		</plan>

	</person>

<!-- ====================================================================== -->

	<person id="1051">
		<plan selected="yes">
			<activity type="home" x="-129496.22016347121" y="198844.60836874135" end_time="11:00:00" >
			</activity>
			<leg mode="car">
			</leg>
			<activity type="shelter" x="-155300.67953153863" y="190537.179345035" start_time="11:30:00" end_time="14:30:00" >
			</activity>
		</plan>

	</person>

<!-- ====================================================================== -->

	<person id="1052">
		<plan selected="yes">
			<activity type="home" x="-129506.8645426865" y="198825.18737525056" end_time="11:00:00" >
			</activity>
			<leg mode="car">
			</leg>
			<activity type="shelter" x="-186798.2915003718" y="193973.81550095603" start_time="11:30:00" end_time="14:30:00" >
			</activity>
		</plan>

	</person>

<!-- ====================================================================== -->

	<person id="1053">
		<plan selected="yes">
			<activity type="home" x="-129505.02840468116" y="198823.9819559605" end_time="11:00:00" >
			</activity>
			<leg mode="car">
			</leg>
			<activity type="shelter" x="-186798.2915003718" y="193973.81550095603" start_time="11:30:00" end_time="14:30:00" >
			</activity>
		</plan>

	</person>

<!-- ====================================================================== -->

	<person id="1054">
		<plan selected="yes">
			<activity type="home" x="-129501.49966038542" y="198834.7064942938" end_time="11:00:00" >
			</activity>
			<leg mode="car">
			</leg>
			<activity type="shelter" x="-155300.67953153863" y="190537.179345035" start_time="11:30:00" end_time="14:30:00" >
			</activity>
		</plan>

	</person>

<!-- ====================================================================== -->

	<person id="1055">
		<plan selected="yes">
			<activity type="home" x="-129549.91576023986" y="198742.8849015706" end_time="11:00:00" >
			</activity>
			<leg mode="car">
			</leg>
			<activity type="shelter" x="-155300.67953153863" y="190537.179345035" start_time="11:30:00" end_time="14:30:00" >
			</activity>
		</plan>

	</person>

<!-- ====================================================================== -->

	<person id="1056">
		<plan selected="yes">
			<activity type="home" x="-129480.81729153458" y="198874.19185008426" end_time="11:00:00" >
			</activity>
			<leg mode="car">
			</leg>
			<activity type="shelter" x="-156772.34509886507" y="195497.46516630892" start_time="11:30:00" end_time="14:30:00" >
			</activity>
		</plan>

	</person>

<!-- ====================================================================== -->

	<person id="1057">
		<plan selected="yes">
			<activity type="home" x="-129495.48212012561" y="198848.59640848768" end_time="11:00:00" >
			</activity>
			<leg mode="car">
			</leg>
			<activity type="shelter" x="-186798.2915003718" y="193973.81550095603" start_time="11:30:00" end_time="14:30:00" >
			</activity>
		</plan>

	</person>

<!-- ====================================================================== -->

	<person id="1058">
		<plan selected="yes">
			<activity type="home" x="-129594.65120599362" y="198659.09465476664" end_time="11:00:00" >
			</activity>
			<leg mode="car">
			</leg>
			<activity type="shelter" x="-156772.34509886507" y="195497.46516630892" start_time="11:30:00" end_time="14:30:00" >
			</activity>
		</plan>

	</person>

<!-- ====================================================================== -->

	<person id="1059">
		<plan selected="yes">
			<activity type="home" x="-129565.05957238503" y="198709.658036734" end_time="11:00:00" >
			</activity>
			<leg mode="car">
			</leg>
			<activity type="shelter" x="-155300.67953153863" y="190537.179345035" start_time="11:30:00" end_time="14:30:00" >
			</activity>
		</plan>

	</person>

<!-- ====================================================================== -->

	<person id="106">
		<plan selected="yes">
			<activity type="home" x="-129551.34649435041" y="198736.35367022062" end_time="11:00:00" >
			</activity>
			<leg mode="car">
			</leg>
			<activity type="shelter" x="-139095.36621895683" y="125060.47076642187" start_time="11:30:00" end_time="14:30:00" >
			</activity>
		</plan>

	</person>

<!-- ====================================================================== -->

	<person id="1060">
		<plan selected="yes">
			<activity type="home" x="-129502.54376735285" y="198827.7325826042" end_time="11:00:00" >
			</activity>
			<leg mode="car">
			</leg>
			<activity type="shelter" x="-186798.2915003718" y="193973.81550095603" start_time="11:30:00" end_time="14:30:00" >
			</activity>
		</plan>

	</person>

<!-- ====================================================================== -->

	<person id="1061">
		<plan selected="yes">
			<activity type="home" x="-129494.99391897376" y="198846.07283809505" end_time="11:00:00" >
			</activity>
			<leg mode="car">
			</leg>
			<activity type="shelter" x="-186798.2915003718" y="193973.81550095603" start_time="11:30:00" end_time="14:30:00" >
			</activity>
		</plan>

	</person>
