<?xml version="1.0" encoding="utf-8"?>
<!DOCTYPE population SYSTEM "http://www.matsim.org/files/dtd/population_v6.dtd">

<population>



<!-- ====================================================================== -->

	<person id="1">
		<plan selected="yes">
			<activity type="home" x="-140215.7651484411" y="194697.70757193997" end_time="11:00:00" >
			</activity>
			<leg mode="car">
			</leg>
			<activity type="shelter" x="-139095.36621895683" y="125060.47076642187" start_time="11:30:00" end_time="14:30:00" >
			</activity>
		</plan>

	</person>

<!-- ====================================================================== -->

	<person id="10">
		<plan selected="yes">
			<activity type="home" x="-144940.23569932394" y="192177.93125242108" end_time="11:00:00" >
			</activity>
			<leg mode="car">
			</leg>
			<activity type="shelter" x="-139095.36621895683" y="125060.47076642187" start_time="11:30:00" end_time="14:30:00" >
			</activity>
		</plan>

	</person>

<!-- ====================================================================== -->

	<person id="100">
		<plan selected="yes">
			<activity type="home" x="-135014.57847546658" y="192160.48146700324" end_time="11:00:00" >
			</activity>
			<leg mode="car">
			</leg>
			<activity type="shelter" x="-139095.36621895683" y="125060.47076642187" start_time="11:30:00" end_time="14:30:00" >
			</activity>
		</plan>

	</person>

<!-- ====================================================================== -->

	<person id="1000">
		<plan selected="yes">
			<activity type="home" x="-136009.803771108" y="188665.3971646326" end_time="11:00:00" >
			</activity>
			<leg mode="car">
			</leg>
			<activity type="shelter" x="-156772.34509886507" y="195497.46516630892" start_time="11:30:00" end_time="14:30:00" >
			</activity>
		</plan>

	</person>

<!-- ====================================================================== -->

	<person id="1001">
		<plan selected="yes">
			<activity type="home" x="-130759.38431226117" y="189300.68447255116" end_time="11:00:00" >
			</activity>
			<leg mode="car">
			</leg>
			<activity type="shelter" x="-155300.67953153863" y="190537.179345035" start_time="11:30:00" end_time="14:30:00" >
			</activity>
		</plan>

	</person>

<!-- ====================================================================== -->

	<person id="1002">
		<plan selected="yes">
			<activity type="home" x="-137714.36778615697" y="194513.85661622233" end_time="11:00:00" >
			</activity>
			<leg mode="car">
			</leg>
			<activity type="shelter" x="-155300.67953153863" y="190537.179345035" start_time="11:30:00" end_time="14:30:00" >
			</activity>
		</plan>

	</person>

<!-- ====================================================================== -->

	<person id="1003">
		<plan selected="yes">
			<activity type="home" x="-137921.06094575906" y="194482.19943828884" end_time="11:00:00" >
			</activity>
			<leg mode="car">
			</leg>
			<activity type="shelter" x="-186798.2915003718" y="193973.81550095603" start_time="11:30:00" end_time="14:30:00" >
			</activity>
		</plan>

	</person>

<!-- ====================================================================== -->

	<person id="1004">
		<plan selected="yes">
			<activity type="home" x="-136576.5538625349" y="193142.095204981" end_time="11:00:00" >
			</activity>
			<leg mode="car">
			</leg>
			<activity type="shelter" x="-156772.34509886507" y="195497.46516630892" start_time="11:30:00" end_time="14:30:00" >
			</activity>
		</plan>

	</person>

<!-- ====================================================================== -->

	<person id="1005">
		<plan selected="yes">
			<activity type="home" x="-137264.9706858044" y="199895.32761472097" end_time="11:00:00" >
			</activity>
			<leg mode="car">
			</leg>
			<activity type="shelter" x="-155300.67953153863" y="190537.179345035" start_time="11:30:00" end_time="14:30:00" >
			</activity>
		</plan>

	</person>

<!-- ====================================================================== -->

	<person id="1006">
		<plan selected="yes">
			<activity type="home" x="-136484.95940757258" y="194201.81312210797" end_time="11:00:00" >
			</activity>
			<leg mode="car">
			</leg>
			<activity type="shelter" x="-139095.36621895683" y="125060.47076642187" start_time="11:30:00" end_time="14:30:00" >
			</activity>
		</plan>

	</person>

<!-- ====================================================================== -->

	<person id="1007">
		<plan selected="yes">
			<activity type="home" x="-139397.25800968206" y="186337.5158361138" end_time="11:00:00" >
			</activity>
			<leg mode="car">
			</leg>
			<activity type="shelter" x="-139095.36621895683" y="125060.47076642187" start_time="11:30:00" end_time="14:30:00" >
			</activity>
		</plan>

	</person>

<!-- ====================================================================== -->

	<person id="1008">
		<plan selected="yes">
			<activity type="home" x="-129371.43876695653" y="195588.5496279328" end_time="11:00:00" >
			</activity>
			<leg mode="car">
			</leg>
			<activity type="shelter" x="-145050.3686395875" y="151351.39774185978" start_time="11:30:00" end_time="14:30:00" >
			</activity>
		</plan>

	</person>

<!-- ====================================================================== -->

	<person id="1009">
		<plan selected="yes">
			<activity type="home" x="-138570.12878582923" y="204023.0329063058" end_time="11:00:00" >
			</activity>
			<leg mode="car">
			</leg>
			<activity type="shelter" x="-186798.2915003718" y="193973.81550095603" start_time="11:30:00" end_time="14:30:00" >
			</activity>
		</plan>

	</person>

<!-- ====================================================================== -->

	<person id="101">
		<plan selected="yes">
			<activity type="home" x="-140125.01691214019" y="194884.80818583112" end_time="11:00:00" >
			</activity>
			<leg mode="car">
			</leg>
			<activity type="shelter" x="-156772.34509886507" y="195497.46516630892" start_time="11:30:00" end_time="14:30:00" >
			</activity>
		</plan>

	</person>

<!-- ====================================================================== -->

	<person id="1010">
		<plan selected="yes">
			<activity type="home" x="-136815.985219655" y="197702.14316417213" end_time="11:00:00" >
			</activity>
			<leg mode="car">
			</leg>
			<activity type="shelter" x="-155300.67953153863" y="190537.179345035" start_time="11:30:00" end_time="14:30:00" >
			</activity>
		</plan>

	</person>

<!-- ====================================================================== -->

	<person id="1011">
		<plan selected="yes">
			<activity type="home" x="-137261.15302032707" y="194860.28766423723" end_time="11:00:00" >
			</activity>
			<leg mode="car">
			</leg>
			<activity type="shelter" x="-155300.67953153863" y="190537.179345035" start_time="11:30:00" end_time="14:30:00" >
			</activity>
		</plan>

	</person>

<!-- ====================================================================== -->

	<person id="1012">
		<plan selected="yes">
			<activity type="home" x="-135987.2548459325" y="202664.4665233016" end_time="11:00:00" >
			</activity>
			<leg mode="car">
			</leg>
			<activity type="shelter" x="-155300.67953153863" y="190537.179345035" start_time="11:30:00" end_time="14:30:00" >
			</activity>
		</plan>

	</person>

<!-- ====================================================================== -->

	<person id="1013">
		<plan selected="yes">
			<activity type="home" x="-136898.74611168352" y="206124.24597004938" end_time="11:00:00" >
			</activity>
			<leg mode="car">
			</leg>
			<activity type="shelter" x="-155300.67953153863" y="190537.179345035" start_time="11:30:00" end_time="14:30:00" >
			</activity>
		</plan>

	</person>

<!-- ====================================================================== -->

	<person id="1014">
		<plan selected="yes">
			<activity type="home" x="-136411.19626127396" y="201864.56112605397" end_time="11:00:00" >
			</activity>
			<leg mode="car">
			</leg>
			<activity type="shelter" x="-156772.34509886507" y="195497.46516630892" start_time="11:30:00" end_time="14:30:00" >
			</activity>
		</plan>

	</person>

<!-- ====================================================================== -->

	<person id="1015">
		<plan selected="yes">
			<activity type="home" x="-131983.6618489022" y="185399.72029772014" end_time="11:00:00" >
			</activity>
			<leg mode="car">
			</leg>
			<activity type="shelter" x="-156772.34509886507" y="195497.46516630892" start_time="11:30:00" end_time="14:30:00" >
			</activity>
		</plan>

	</person>

<!-- ====================================================================== -->

	<person id="1016">
		<plan selected="yes">
			<activity type="home" x="-136312.00431113833" y="195596.62740554073" end_time="11:00:00" >
			</activity>
			<leg mode="car">
			</leg>
			<activity type="shelter" x="-139095.36621895683" y="125060.47076642187" start_time="11:30:00" end_time="14:30:00" >
			</activity>
		</plan>

	</person>

<!-- ====================================================================== -->

	<person id="1017">
		<plan selected="yes">
			<activity type="home" x="-139013.50028511678" y="194073.76363808676" end_time="11:00:00" >
			</activity>
			<leg mode="car">
			</leg>
			<activity type="shelter" x="-155300.67953153863" y="190537.179345035" start_time="11:30:00" end_time="14:30:00" >
			</activity>
		</plan>

	</person>

<!-- ====================================================================== -->

	<person id="1018">
		<plan selected="yes">
			<activity type="home" x="-136633.4079286901" y="196475.96677079616" end_time="11:00:00" >
			</activity>
			<leg mode="car">
			</leg>
			<activity type="shelter" x="-186798.2915003718" y="193973.81550095603" start_time="11:30:00" end_time="14:30:00" >
			</activity>
		</plan>

	</person>

<!-- ====================================================================== -->

	<person id="1019">
		<plan selected="yes">
			<activity type="home" x="-135822.81294192938" y="196852.42150977522" end_time="11:00:00" >
			</activity>
			<leg mode="car">
			</leg>
			<activity type="shelter" x="-145050.3686395875" y="151351.39774185978" start_time="11:30:00" end_time="14:30:00" >
			</activity>
		</plan>

	</person>

<!-- ====================================================================== -->

	<person id="102">
		<plan selected="yes">
			<activity type="home" x="-138071.6873997591" y="195116.50869782682" end_time="11:00:00" >
			</activity>
			<leg mode="car">
			</leg>
			<activity type="shelter" x="-155300.67953153863" y="190537.179345035" start_time="11:30:00" end_time="14:30:00" >
			</activity>
		</plan>

	</person>

<!-- ====================================================================== -->

	<person id="1020">
		<plan selected="yes">
			<activity type="home" x="-129878.69726016905" y="188868.58600467123" end_time="11:00:00" >
			</activity>
			<leg mode="car">
			</leg>
			<activity type="shelter" x="-155300.67953153863" y="190537.179345035" start_time="11:30:00" end_time="14:30:00" >
			</activity>
		</plan>

	</person>

<!-- ====================================================================== -->

	<person id="1021">
		<plan selected="yes">
			<activity type="home" x="-137297.3353467182" y="200085.6958893483" end_time="11:00:00" >
			</activity>
			<leg mode="car">
			</leg>
			<activity type="shelter" x="-155300.67953153863" y="190537.179345035" start_time="11:30:00" end_time="14:30:00" >
			</activity>
		</plan>

	</person>

<!-- ====================================================================== -->

	<person id="1022">
		<plan selected="yes">
			<activity type="home" x="-139268.2925217103" y="194554.83903054157" end_time="11:00:00" >
			</activity>
			<leg mode="car">
			</leg>
			<activity type="shelter" x="-156772.34509886507" y="195497.46516630892" start_time="11:30:00" end_time="14:30:00" >
			</activity>
		</plan>

	</person>

<!-- ====================================================================== -->

	<person id="1023">
		<plan selected="yes">
			<activity type="home" x="-135936.89316811328" y="193230.62612825574" end_time="11:00:00" >
			</activity>
			<leg mode="car">
			</leg>
			<activity type="shelter" x="-155300.67953153863" y="190537.179345035" start_time="11:30:00" end_time="14:30:00" >
			</activity>
		</plan>

	</person>

<!-- ====================================================================== -->

	<person id="1024">
		<plan selected="yes">
			<activity type="home" x="-137331.90395588757" y="200517.61233896282" end_time="11:00:00" >
			</activity>
			<leg mode="car">
			</leg>
			<activity type="shelter" x="-156772.34509886507" y="195497.46516630892" start_time="11:30:00" end_time="14:30:00" >
			</activity>
		</plan>

	</person>

<!-- ====================================================================== -->

	<person id="1025">
		<plan selected="yes">
			<activity type="home" x="-137028.88312297722" y="197905.67200381294" end_time="11:00:00" >
			</activity>
			<leg mode="car">
			</leg>
			<activity type="shelter" x="-155300.67953153863" y="190537.179345035" start_time="11:30:00" end_time="14:30:00" >
			</activity>
		</plan>

	</person>

<!-- ====================================================================== -->

	<person id="1026">
		<plan selected="yes">
			<activity type="home" x="-138675.62069190477" y="193394.08905741712" end_time="11:00:00" >
			</activity>
			<leg mode="car">
			</leg>
			<activity type="shelter" x="-139095.36621895683" y="125060.47076642187" start_time="11:30:00" end_time="14:30:00" >
			</activity>
		</plan>

	</person>

<!-- ====================================================================== -->

	<person id="1027">
		<plan selected="yes">
			<activity type="home" x="-140280.15862172755" y="193350.90958419305" end_time="11:00:00" >
			</activity>
			<leg mode="car">
			</leg>
			<activity type="shelter" x="-155300.67953153863" y="190537.179345035" start_time="11:30:00" end_time="14:30:00" >
			</activity>
		</plan>

	</person>

<!-- ====================================================================== -->

	<person id="1028">
		<plan selected="yes">
			<activity type="home" x="-136850.07796937705" y="196743.56365620208" end_time="11:00:00" >
			</activity>
			<leg mode="car">
			</leg>
			<activity type="shelter" x="-155300.67953153863" y="190537.179345035" start_time="11:30:00" end_time="14:30:00" >
			</activity>
		</plan>

	</person>

<!-- ====================================================================== -->

	<person id="1029">
		<plan selected="yes">
			<activity type="home" x="-129887.96817539782" y="190307.3780039551" end_time="11:00:00" >
			</activity>
			<leg mode="car">
			</leg>
			<activity type="shelter" x="-139095.36621895683" y="125060.47076642187" start_time="11:30:00" end_time="14:30:00" >
			</activity>
		</plan>

	</person>

<!-- ====================================================================== -->

	<person id="103">
		<plan selected="yes">
			<activity type="home" x="-141153.3414957537" y="194861.49122674033" end_time="11:00:00" >
			</activity>
			<leg mode="car">
			</leg>
			<activity type="shelter" x="-139095.36621895683" y="125060.47076642187" start_time="11:30:00" end_time="14:30:00" >
			</activity>
		</plan>

	</person>

<!-- ====================================================================== -->

	<person id="1030">
		<plan selected="yes">
			<activity type="home" x="-137988.67404565428" y="195447.022493594" end_time="11:00:00" >
			</activity>
			<leg mode="car">
			</leg>
			<activity type="shelter" x="-156772.34509886507" y="195497.46516630892" start_time="11:30:00" end_time="14:30:00" >
			</activity>
		</plan>

	</person>

<!-- ====================================================================== -->

	<person id="1031">
		<plan selected="yes">
			<activity type="home" x="-128698.30614348591" y="202931.2718200811" end_time="11:00:00" >
			</activity>
			<leg mode="car">
			</leg>
			<activity type="shelter" x="-156772.34509886507" y="195497.46516630892" start_time="11:30:00" end_time="14:30:00" >
			</activity>
		</plan>

	</person>

<!-- ====================================================================== -->

	<person id="1032">
		<plan selected="yes">
			<activity type="home" x="-136722.24905780758" y="196605.99186270655" end_time="11:00:00" >
			</activity>
			<leg mode="car">
			</leg>
			<activity type="shelter" x="-186798.2915003718" y="193973.81550095603" start_time="11:30:00" end_time="14:30:00" >
			</activity>
		</plan>

	</person>

<!-- ====================================================================== -->

	<person id="1033">
		<plan selected="yes">
			<activity type="home" x="-139141.79353162882" y="201640.06520058634" end_time="11:00:00" >
			</activity>
			<leg mode="car">
			</leg>
			<activity type="shelter" x="-186798.2915003718" y="193973.81550095603" start_time="11:30:00" end_time="14:30:00" >
			</activity>
		</plan>

	</person>

<!-- ====================================================================== -->

	<person id="1034">
		<plan selected="yes">
			<activity type="home" x="-136953.68853809583" y="205584.8995789643" end_time="11:00:00" >
			</activity>
			<leg mode="car">
			</leg>
			<activity type="shelter" x="-155300.67953153863" y="190537.179345035" start_time="11:30:00" end_time="14:30:00" >
			</activity>
		</plan>

	</person>

<!-- ====================================================================== -->

	<person id="1035">
		<plan selected="yes">
			<activity type="home" x="-138711.83144082397" y="196134.10199077893" end_time="11:00:00" >
			</activity>
			<leg mode="car">
			</leg>
			<activity type="shelter" x="-155300.67953153863" y="190537.179345035" start_time="11:30:00" end_time="14:30:00" >
			</activity>
		</plan>

	</person>

<!-- ====================================================================== -->

	<person id="1036">
		<plan selected="yes">
			<activity type="home" x="-144621.14436139693" y="193527.24078401577" end_time="11:00:00" >
			</activity>
			<leg mode="car">
			</leg>
			<activity type="shelter" x="-155300.67953153863" y="190537.179345035" start_time="11:30:00" end_time="14:30:00" >
			</activity>
		</plan>

	</person>

<!-- ====================================================================== -->

	<person id="1037">
		<plan selected="yes">
			<activity type="home" x="-127875.21314695923" y="194564.88137593013" end_time="11:00:00" >
			</activity>
			<leg mode="car">
			</leg>
			<activity type="shelter" x="-186798.2915003718" y="193973.81550095603" start_time="11:30:00" end_time="14:30:00" >
			</activity>
		</plan>

	</person>

<!-- ====================================================================== -->

	<person id="1038">
		<plan selected="yes">
			<activity type="home" x="-140004.2101829707" y="195543.38714474303" end_time="11:00:00" >
			</activity>
			<leg mode="car">
			</leg>
			<activity type="shelter" x="-155300.67953153863" y="190537.179345035" start_time="11:30:00" end_time="14:30:00" >
			</activity>
		</plan>

	</person>

<!-- ====================================================================== -->

	<person id="1039">
		<plan selected="yes">
			<activity type="home" x="-135541.0248778393" y="204873.6577806105" end_time="11:00:00" >
			</activity>
			<leg mode="car">
			</leg>
			<activity type="shelter" x="-155300.67953153863" y="190537.179345035" start_time="11:30:00" end_time="14:30:00" >
			</activity>
		</plan>

	</person>

<!-- ====================================================================== -->

	<person id="104">
		<plan selected="yes">
			<activity type="home" x="-136118.58020811353" y="196718.07868805918" end_time="11:00:00" >
			</activity>
			<leg mode="car">
			</leg>
			<activity type="shelter" x="-156772.34509886507" y="195497.46516630892" start_time="11:30:00" end_time="14:30:00" >
			</activity>
		</plan>

	</person>

<!-- ====================================================================== -->

	<person id="1040">
		<plan selected="yes">
			<activity type="home" x="-121596.12757122061" y="202614.85591853873" end_time="11:00:00" >
			</activity>
			<leg mode="car">
			</leg>
			<activity type="shelter" x="-155300.67953153863" y="190537.179345035" start_time="11:30:00" end_time="14:30:00" >
			</activity>
		</plan>

	</person>

<!-- ====================================================================== -->

	<person id="1041">
		<plan selected="yes">
			<activity type="home" x="-140896.7078014479" y="193207.11377370742" end_time="11:00:00" >
			</activity>
			<leg mode="car">
			</leg>
			<activity type="shelter" x="-139095.36621895683" y="125060.47076642187" start_time="11:30:00" end_time="14:30:00" >
			</activity>
		</plan>

	</person>

<!-- ====================================================================== -->

	<person id="1042">
		<plan selected="yes">
			<activity type="home" x="-139538.31867525278" y="207113.1258518589" end_time="11:00:00" >
			</activity>
			<leg mode="car">
			</leg>
			<activity type="shelter" x="-186798.2915003718" y="193973.81550095603" start_time="11:30:00" end_time="14:30:00" >
			</activity>
		</plan>

	</person>

<!-- ====================================================================== -->

	<person id="1043">
		<plan selected="yes">
			<activity type="home" x="-135101.2347696184" y="197955.77207353662" end_time="11:00:00" >
			</activity>
			<leg mode="car">
			</leg>
			<activity type="shelter" x="-155300.67953153863" y="190537.179345035" start_time="11:30:00" end_time="14:30:00" >
			</activity>
		</plan>

	</person>

<!-- ====================================================================== -->

	<person id="1044">
		<plan selected="yes">
			<activity type="home" x="-136049.41164888136" y="195766.25451089785" end_time="11:00:00" >
			</activity>
			<leg mode="car">
			</leg>
			<activity type="shelter" x="-139095.36621895683" y="125060.47076642187" start_time="11:30:00" end_time="14:30:00" >
			</activity>
		</plan>

	</person>

<!-- ====================================================================== -->

	<person id="1045">
		<plan selected="yes">
			<activity type="home" x="-120679.0394704214" y="202701.15594243878" end_time="11:00:00" >
			</activity>
			<leg mode="car">
			</leg>
			<activity type="shelter" x="-186798.2915003718" y="193973.81550095603" start_time="11:30:00" end_time="14:30:00" >
			</activity>
		</plan>

	</person>

<!-- ====================================================================== -->

	<person id="1046">
		<plan selected="yes">
			<activity type="home" x="-138163.69996540385" y="193706.09891057835" end_time="11:00:00" >
			</activity>
			<leg mode="car">
			</leg>
			<activity type="shelter" x="-186798.2915003718" y="193973.81550095603" start_time="11:30:00" end_time="14:30:00" >
			</activity>
		</plan>

	</person>

<!-- ====================================================================== -->

	<person id="1047">
		<plan selected="yes">
			<activity type="home" x="-136303.32358989082" y="194886.9647161924" end_time="11:00:00" >
			</activity>
			<leg mode="car">
			</leg>
			<activity type="shelter" x="-186798.2915003718" y="193973.81550095603" start_time="11:30:00" end_time="14:30:00" >
			</activity>
		</plan>

	</person>

<!-- ====================================================================== -->

	<person id="1048">
		<plan selected="yes">
			<activity type="home" x="-134909.44387028817" y="191463.86527222494" end_time="11:00:00" >
			</activity>
			<leg mode="car">
			</leg>
			<activity type="shelter" x="-155300.67953153863" y="190537.179345035" start_time="11:30:00" end_time="14:30:00" >
			</activity>
		</plan>

	</person>

<!-- ====================================================================== -->

	<person id="1049">
		<plan selected="yes">
			<activity type="home" x="-137148.87007894338" y="200909.53194460075" end_time="11:00:00" >
			</activity>
			<leg mode="car">
			</leg>
			<activity type="shelter" x="-155300.67953153863" y="190537.179345035" start_time="11:30:00" end_time="14:30:00" >
			</activity>
		</plan>

	</person>

<!-- ====================================================================== -->

	<person id="105">
		<plan selected="yes">
			<activity type="home" x="-137425.35910267255" y="196111.9457696338" end_time="11:00:00" >
			</activity>
			<leg mode="car">
			</leg>
			<activity type="shelter" x="-156772.34509886507" y="195497.46516630892" start_time="11:30:00" end_time="14:30:00" >
			</activity>
		</plan>

	</person>

<!-- ====================================================================== -->

	<person id="1050">
		<plan selected="yes">
			<activity type="home" x="-131652.19212516825" y="191254.13335064804" end_time="11:00:00" >
			</activity>
			<leg mode="car">
			</leg>
			<activity type="shelter" x="-139095.36621895683" y="125060.47076642187" start_time="11:30:00" end_time="14:30:00" >
			</activity>
		</plan>

	</person>

<!-- ====================================================================== -->

	<person id="1051">
		<plan selected="yes">
			<activity type="home" x="-138706.07737648778" y="194022.94563255433" end_time="11:00:00" >
			</activity>
			<leg mode="car">
			</leg>
			<activity type="shelter" x="-156772.34509886507" y="195497.46516630892" start_time="11:30:00" end_time="14:30:00" >
			</activity>
		</plan>

	</person>

<!-- ====================================================================== -->

	<person id="1052">
		<plan selected="yes">
			<activity type="home" x="-137514.20241439895" y="196108.55296861535" end_time="11:00:00" >
			</activity>
			<leg mode="car">
			</leg>
			<activity type="shelter" x="-155300.67953153863" y="190537.179345035" start_time="11:30:00" end_time="14:30:00" >
			</activity>
		</plan>

	</person>

<!-- ====================================================================== -->

	<person id="1053">
		<plan selected="yes">
			<activity type="home" x="-135391.43403352832" y="194890.5728313066" end_time="11:00:00" >
			</activity>
			<leg mode="car">
			</leg>
			<activity type="shelter" x="-186798.2915003718" y="193973.81550095603" start_time="11:30:00" end_time="14:30:00" >
			</activity>
		</plan>

	</person>

<!-- ====================================================================== -->

	<person id="1054">
		<plan selected="yes">
			<activity type="home" x="-142911.54303312534" y="192678.70562838812" end_time="11:00:00" >
			</activity>
			<leg mode="car">
			</leg>
			<activity type="shelter" x="-139095.36621895683" y="125060.47076642187" start_time="11:30:00" end_time="14:30:00" >
			</activity>
		</plan>

	</person>

<!-- ====================================================================== -->

	<person id="1055">
		<plan selected="yes">
			<activity type="home" x="-134862.0454221574" y="191733.3011498542" end_time="11:00:00" >
			</activity>
			<leg mode="car">
			</leg>
			<activity type="shelter" x="-186798.2915003718" y="193973.81550095603" start_time="11:30:00" end_time="14:30:00" >
			</activity>
		</plan>

	</person>

<!-- ====================================================================== -->

	<person id="1056">
		<plan selected="yes">
			<activity type="home" x="-135705.91380204458" y="195687.72472041965" end_time="11:00:00" >
			</activity>
			<leg mode="car">
			</leg>
			<activity type="shelter" x="-145050.3686395875" y="151351.39774185978" start_time="11:30:00" end_time="14:30:00" >
			</activity>
		</plan>

	</person>

<!-- ====================================================================== -->

	<person id="1057">
		<plan selected="yes">
			<activity type="home" x="-143740.1896484363" y="194525.55959301832" end_time="11:00:00" >
			</activity>
			<leg mode="car">
			</leg>
			<activity type="shelter" x="-186798.2915003718" y="193973.81550095603" start_time="11:30:00" end_time="14:30:00" >
			</activity>
		</plan>

	</person>

<!-- ====================================================================== -->

	<person id="1058">
		<plan selected="yes">
			<activity type="home" x="-143868.39114823443" y="192833.03282911045" end_time="11:00:00" >
			</activity>
			<leg mode="car">
			</leg>
			<activity type="shelter" x="-145050.3686395875" y="151351.39774185978" start_time="11:30:00" end_time="14:30:00" >
			</activity>
		</plan>

	</person>

<!-- ====================================================================== -->

	<person id="1059">
		<plan selected="yes">
			<activity type="home" x="-137496.61380708579" y="199468.50446521307" end_time="11:00:00" >
			</activity>
			<leg mode="car">
			</leg>
			<activity type="shelter" x="-145050.3686395875" y="151351.39774185978" start_time="11:30:00" end_time="14:30:00" >
			</activity>
		</plan>

	</person>

<!-- ====================================================================== -->

	<person id="106">
		<plan selected="yes">
			<activity type="home" x="-136499.91797376514" y="196668.60529496666" end_time="11:00:00" >
			</activity>
			<leg mode="car">
			</leg>
			<activity type="shelter" x="-145050.3686395875" y="151351.39774185978" start_time="11:30:00" end_time="14:30:00" >
			</activity>
		</plan>

	</person>

<!-- ====================================================================== -->

	<person id="1060">
		<plan selected="yes">
			<activity type="home" x="-136571.3053724169" y="202562.08062197766" end_time="11:00:00" >
			</activity>
			<leg mode="car">
			</leg>
			<activity type="shelter" x="-155300.67953153863" y="190537.179345035" start_time="11:30:00" end_time="14:30:00" >
			</activity>
		</plan>

	</person>

<!-- ====================================================================== -->

	<person id="1061">
		<plan selected="yes">
			<activity type="home" x="-134175.66338704855" y="195266.1471497625" end_time="11:00:00" >
			</activity>
			<leg mode="car">
			</leg>
			<activity type="shelter" x="-155300.67953153863" y="190537.179345035" start_time="11:30:00" end_time="14:30:00" >
			</activity>
		</plan>

	</person>

<!-- ====================================================================== -->
