<?xml version="1.0" encoding="UTF-8"?>
<networkChangeEvents xmlns="http://www.matsim.org/files/dtd" xmlns:xsi="http://www.w3.org/2001/XMLSchema-instance" xsi:schemaLocation="http://www.matsim.org/files/dtd http://www.matsim.org/files/dtd/networkChangeEvents.xsd">
    <networkChangeEvent startTime="07:40:00">
        <link refId="1"/>
        <link refId="10"/>
        <link refId="100"/>
        <link refId="10011"/>
        <link refId="10012"/>
        <link refId="10013"/>
        <link refId="10014"/>
        <link refId="10015"/>
        <link refId="10016"/>
        <link refId="10017"/>
        <link refId="10018"/>
        <link refId="10019"/>
        <link refId="10020"/>
        <link refId="10021"/>
        <link refId="10022"/>
        <link refId="10023"/>
        <link refId="10024"/>
        <link refId="10025"/>
        <link refId="10026"/>
        <link refId="10027"/>
        <link refId="10028"/>
        <link refId="10029"/>
        <link refId="10030"/>
        <link refId="10031"/>
        <link refId="10032"/>
        <link refId="10033"/>
        <link refId="10034"/>
        <link refId="10035"/>
        <link refId="10036"/>
        <link refId="10037"/>
        <link refId="10038"/>
        <link refId="10039"/>
        <link refId="10040"/>
        <link refId="10041"/>
        <link refId="10042"/>
        <link refId="10049"/>
        <link refId="10050"/>
        <link refId="10079"/>
        <link refId="10080"/>
        <link refId="10081"/>
        <link refId="10082"/>
        <link refId="10087"/>
        <link refId="10088"/>
        <link refId="10089"/>
        <link refId="10090"/>
        <link refId="10091"/>
        <link refId="10092"/>
        <link refId="10093"/>
        <link refId="10094"/>
        <link refId="10095"/>
        <link refId="10096"/>
        <link refId="10099"/>
        <link refId="101"/>
        <link refId="10100"/>
        <link refId="10101"/>
        <link refId="10102"/>
        <link refId="102"/>
        <link refId="103"/>
        <link refId="10311"/>
        <link refId="10312"/>
        <link refId="10313"/>
        <link refId="10314"/>
        <link refId="10315"/>
        <link refId="10316"/>
        <link refId="10317"/>
        <link refId="10318"/>
        <link refId="10319"/>
        <link refId="10320"/>
        <link refId="10321"/>
        <link refId="10322"/>
        <link refId="10323"/>
        <link refId="10324"/>
        <link refId="10325"/>
        <link refId="10326"/>
        <link refId="10327"/>
        <link refId="10328"/>
        <link refId="10329"/>
        <link refId="10330"/>
        <link refId="10331"/>
        <link refId="10332"/>
        <link refId="10345"/>
        <link refId="10346"/>
        <link refId="10349"/>
        <link refId="10350"/>
        <link refId="10351"/>
        <link refId="10352"/>
        <link refId="10353"/>
        <link refId="10354"/>
        <link refId="104"/>
        <link refId="10410"/>
        <link refId="10411"/>
        <link refId="105"/>
        <link refId="106"/>
        <link refId="10624"/>
        <link refId="10625"/>
        <link refId="10626"/>
        <link refId="10627"/>
        <link refId="107"/>
        <link refId="10740"/>
        <link refId="10741"/>
        <link refId="10782"/>
        <link refId="10783"/>
        <link refId="10784"/>
        <link refId="10785"/>
        <link refId="10786"/>
        <link refId="10787"/>
        <link refId="10788"/>
        <link refId="10789"/>
        <link refId="10790"/>
        <link refId="10791"/>
        <link refId="10792"/>
        <link refId="10793"/>
        <link refId="10798"/>
        <link refId="10799"/>
        <link refId="108"/>
        <link refId="10800"/>
        <link refId="10801"/>
        <link refId="10834"/>
        <link refId="10835"/>
        <link refId="10836"/>
        <link refId="10837"/>
        <link refId="10838"/>
        <link refId="10839"/>
        <link refId="10840"/>
        <link refId="10841"/>
        <link refId="10874"/>
        <link refId="10875"/>
        <link refId="10876"/>
        <link refId="10877"/>
        <link refId="1089"/>
        <link refId="10890"/>
        <link refId="10891"/>
        <link refId="10892"/>
        <link refId="10893"/>
        <link refId="10894"/>
        <link refId="10895"/>
        <link refId="10896"/>
        <link refId="10897"/>
        <link refId="109"/>
        <link refId="1090"/>
        <link refId="10916"/>
        <link refId="10917"/>
        <link refId="10918"/>
        <link refId="10919"/>
        <link refId="10954"/>
        <link refId="10955"/>
        <link refId="10988"/>
        <link refId="10989"/>
        <link refId="10990"/>
        <link refId="10991"/>
        <link refId="10992"/>
        <link refId="10993"/>
        <link refId="10994"/>
        <link refId="10995"/>
        <link refId="10996"/>
        <link refId="10997"/>
        <link refId="10998"/>
        <link refId="10999"/>
        <link refId="11"/>
        <link refId="110"/>
        <link refId="11000"/>
        <link refId="11001"/>
        <link refId="11002"/>
        <link refId="11003"/>
        <link refId="11004"/>
        <link refId="11005"/>
        <link refId="11006"/>
        <link refId="11007"/>
        <link refId="11008"/>
        <link refId="11009"/>
        <link refId="1101"/>
        <link refId="11010"/>
        <link refId="11011"/>
        <link refId="11012"/>
        <link refId="11013"/>
        <link refId="11014"/>
        <link refId="11015"/>
        <link refId="11016"/>
        <link refId="11017"/>
        <link refId="11018"/>
        <link refId="11019"/>
        <link refId="1102"/>
        <link refId="11020"/>
        <link refId="11021"/>
        <link refId="11022"/>
        <link refId="11023"/>
        <link refId="11024"/>
        <link refId="11025"/>
        <link refId="11026"/>
        <link refId="11027"/>
        <link refId="11028"/>
        <link refId="11029"/>
        <link refId="11030"/>
        <link refId="11031"/>
        <link refId="11032"/>
        <link refId="11033"/>
        <link refId="11034"/>
        <link refId="11035"/>
        <link refId="11036"/>
        <link refId="11037"/>
        <link refId="11038"/>
        <link refId="11039"/>
        <link refId="11040"/>
        <link refId="11041"/>
        <link refId="11042"/>
        <link refId="11043"/>
        <link refId="11048"/>
        <link refId="11049"/>
        <link refId="11050"/>
        <link refId="11051"/>
        <link refId="11058"/>
        <link refId="11059"/>
        <link refId="11098"/>
        <link refId="11099"/>
        <link refId="111"/>
        <link refId="11120"/>
        <link refId="11121"/>
        <link refId="11122"/>
        <link refId="11123"/>
        <link refId="11130"/>
        <link refId="11131"/>
        <link refId="11132"/>
        <link refId="11133"/>
        <link refId="11134"/>
        <link refId="11135"/>
        <link refId="11136"/>
        <link refId="11137"/>
        <link refId="11146"/>
        <link refId="11147"/>
        <link refId="11154"/>
        <link refId="11155"/>
        <link refId="11156"/>
        <link refId="11157"/>
        <link refId="11158"/>
        <link refId="11159"/>
        <link refId="11160"/>
        <link refId="11161"/>
        <link refId="11166"/>
        <link refId="11167"/>
        <link refId="11178"/>
        <link refId="11179"/>
        <link refId="11180"/>
        <link refId="11181"/>
        <link refId="11184"/>
        <link refId="11185"/>
        <link refId="11186"/>
        <link refId="11187"/>
        <link refId="11190"/>
        <link refId="11191"/>
        <link refId="11192"/>
        <link refId="11193"/>
        <link refId="11194"/>
        <link refId="11195"/>
        <link refId="11196"/>
        <link refId="11197"/>
        <link refId="11198"/>
        <link refId="11199"/>
        <link refId="112"/>
        <link refId="11200"/>
        <link refId="11201"/>
        <link refId="11202"/>
        <link refId="11203"/>
        <link refId="11204"/>
        <link refId="11205"/>
        <link refId="11232"/>
        <link refId="11233"/>
        <link refId="11256"/>
        <link refId="11257"/>
        <link refId="11278"/>
        <link refId="11279"/>
        <link refId="11280"/>
        <link refId="11281"/>
        <link refId="11282"/>
        <link refId="11283"/>
        <link refId="11284"/>
        <link refId="11285"/>
        <link refId="113"/>
        <link refId="11314"/>
        <link refId="11315"/>
        <link refId="11318"/>
        <link refId="11319"/>
        <link refId="11322"/>
        <link refId="11323"/>
        <link refId="11326"/>
        <link refId="11327"/>
        <link refId="1133"/>
        <link refId="11336"/>
        <link refId="11337"/>
        <link refId="1134"/>
        <link refId="11354"/>
        <link refId="11355"/>
        <link refId="1139"/>
        <link refId="114"/>
        <link refId="1140"/>
        <link refId="1141"/>
        <link refId="1142"/>
        <link refId="1143"/>
        <link refId="11439"/>
        <link refId="1144"/>
        <link refId="11440"/>
        <link refId="11441"/>
        <link refId="11442"/>
        <link refId="11443"/>
        <link refId="11444"/>
        <link refId="11445"/>
        <link refId="11446"/>
        <link refId="11447"/>
        <link refId="11448"/>
        <link refId="11449"/>
        <link refId="1145"/>
        <link refId="11450"/>
        <link refId="1146"/>
        <link refId="11467"/>
        <link refId="11468"/>
        <link refId="11469"/>
        <link refId="1147"/>
        <link refId="11470"/>
        <link refId="11471"/>
        <link refId="11472"/>
        <link refId="11473"/>
        <link refId="11474"/>
        <link refId="11475"/>
        <link refId="11476"/>
        <link refId="11477"/>
        <link refId="11478"/>
        <link refId="11479"/>
        <link refId="1148"/>
        <link refId="11480"/>
        <link refId="1149"/>
        <link refId="115"/>
        <link refId="1150"/>
        <link refId="11507"/>
        <link refId="11508"/>
        <link refId="1151"/>
        <link refId="11511"/>
        <link refId="11512"/>
        <link refId="11513"/>
        <link refId="11514"/>
        <link refId="11515"/>
        <link refId="11516"/>
        <link refId="11517"/>
        <link refId="11518"/>
        <link refId="1152"/>
        <link refId="11529"/>
        <link refId="1153"/>
        <link refId="11530"/>
        <link refId="11531"/>
        <link refId="11532"/>
        <link refId="11533"/>
        <link refId="11534"/>
        <link refId="11535"/>
        <link refId="11536"/>
        <link refId="11537"/>
        <link refId="11538"/>
        <link refId="11539"/>
        <link refId="1154"/>
        <link refId="11540"/>
        <link refId="11541"/>
        <link refId="11542"/>
        <link refId="1155"/>
        <link refId="1156"/>
        <link refId="1157"/>
        <link refId="11573"/>
        <link refId="11574"/>
        <link refId="1158"/>
        <link refId="11583"/>
        <link refId="11584"/>
        <link refId="11585"/>
        <link refId="11586"/>
        <link refId="1159"/>
        <link refId="11591"/>
        <link refId="11592"/>
        <link refId="11593"/>
        <link refId="11594"/>
        <link refId="11595"/>
        <link refId="11596"/>
        <link refId="11597"/>
        <link refId="11598"/>
        <link refId="11599"/>
        <link refId="116"/>
        <link refId="1160"/>
        <link refId="11600"/>
        <link refId="11601"/>
        <link refId="11602"/>
        <link refId="11603"/>
        <link refId="11604"/>
        <link refId="11605"/>
        <link refId="11606"/>
        <link refId="11609"/>
        <link refId="11610"/>
        <link refId="11617"/>
        <link refId="11618"/>
        <link refId="1165"/>
        <link refId="11671"/>
        <link refId="11672"/>
        <link refId="1168"/>
        <link refId="11698"/>
        <link refId="11699"/>
        <link refId="117"/>
        <link refId="11700"/>
        <link refId="11701"/>
        <link refId="11704"/>
        <link refId="11705"/>
        <link refId="11742"/>
        <link refId="11743"/>
        <link refId="11744"/>
        <link refId="11745"/>
        <link refId="11756"/>
        <link refId="11771"/>
        <link refId="11772"/>
        <link refId="11773"/>
        <link refId="11774"/>
        <link refId="11775"/>
        <link refId="11776"/>
        <link refId="11777"/>
        <link refId="11778"/>
        <link refId="11779"/>
        <link refId="11780"/>
        <link refId="11781"/>
        <link refId="11782"/>
        <link refId="11783"/>
        <link refId="11784"/>
        <link refId="11785"/>
        <link refId="11786"/>
        <link refId="11791"/>
        <link refId="11792"/>
        <link refId="118"/>
        <link refId="11811"/>
        <link refId="11812"/>
        <link refId="11815"/>
        <link refId="11816"/>
        <link refId="11817"/>
        <link refId="11818"/>
        <link refId="11819"/>
        <link refId="11820"/>
        <link refId="11825"/>
        <link refId="11826"/>
        <link refId="11827"/>
        <link refId="11828"/>
        <link refId="11831"/>
        <link refId="11832"/>
        <link refId="11851"/>
        <link refId="11852"/>
        <link refId="11853"/>
        <link refId="11854"/>
        <link refId="11855"/>
        <link refId="11856"/>
        <link refId="11857"/>
        <link refId="11858"/>
        <link refId="11859"/>
        <link refId="11860"/>
        <link refId="11861"/>
        <link refId="11862"/>
        <link refId="11863"/>
        <link refId="11864"/>
        <link refId="11867"/>
        <link refId="11868"/>
        <link refId="11869"/>
        <link refId="11870"/>
        <link refId="11871"/>
        <link refId="11872"/>
        <link refId="11873"/>
        <link refId="11874"/>
        <link refId="11875"/>
        <link refId="11876"/>
        <link refId="11877"/>
        <link refId="11878"/>
        <link refId="11879"/>
        <link refId="11880"/>
        <link refId="11881"/>
        <link refId="11882"/>
        <link refId="11883"/>
        <link refId="11884"/>
        <link refId="11885"/>
        <link refId="11886"/>
        <link refId="11889"/>
        <link refId="11890"/>
        <link refId="11897"/>
        <link refId="11898"/>
        <link refId="11899"/>
        <link refId="119"/>
        <link refId="11900"/>
        <link refId="11901"/>
        <link refId="11902"/>
        <link refId="11903"/>
        <link refId="11904"/>
        <link refId="11905"/>
        <link refId="11906"/>
        <link refId="11907"/>
        <link refId="11908"/>
        <link refId="11909"/>
        <link refId="11910"/>
        <link refId="11911"/>
        <link refId="11912"/>
        <link refId="11913"/>
        <link refId="11914"/>
        <link refId="11915"/>
        <link refId="11916"/>
        <link refId="11917"/>
        <link refId="11918"/>
        <link refId="11919"/>
        <link refId="11920"/>
        <link refId="11921"/>
        <link refId="11922"/>
        <link refId="11923"/>
        <link refId="11924"/>
        <link refId="11925"/>
        <link refId="11926"/>
        <link refId="11927"/>
        <link refId="11928"/>
        <link refId="11929"/>
        <link refId="11930"/>
        <link refId="11931"/>
        <link refId="11932"/>
        <link refId="11933"/>
        <link refId="11934"/>
        <link refId="11935"/>
        <link refId="11936"/>
        <link refId="11937"/>
        <link refId="11938"/>
        <link refId="11939"/>
        <link refId="11940"/>
        <link refId="11941"/>
        <link refId="11942"/>
        <link refId="11943"/>
        <link refId="11944"/>
        <link refId="11945"/>
        <link refId="11946"/>
        <link refId="11947"/>
        <link refId="11948"/>
        <link refId="11949"/>
        <link refId="11950"/>
        <link refId="11951"/>
        <link refId="11952"/>
        <link refId="11955"/>
        <link refId="11956"/>
        <link refId="11957"/>
        <link refId="11958"/>
        <link refId="11959"/>
        <link refId="11960"/>
        <link refId="11963"/>
        <link refId="11964"/>
        <link refId="11969"/>
        <link refId="11970"/>
        <link refId="11971"/>
        <link refId="11972"/>
        <link refId="11973"/>
        <link refId="11974"/>
        <link refId="11975"/>
        <link refId="11976"/>
        <link refId="11977"/>
        <link refId="11978"/>
        <link refId="11979"/>
        <link refId="11980"/>
        <link refId="11981"/>
        <link refId="11982"/>
        <link refId="11983"/>
        <link refId="11984"/>
        <link refId="11985"/>
        <link refId="11986"/>
        <link refId="11997"/>
        <link refId="11998"/>
        <link refId="11999"/>
        <link refId="12"/>
        <link refId="120"/>
        <link refId="12000"/>
        <link refId="12015"/>
        <link refId="12016"/>
        <link refId="12017"/>
        <link refId="12018"/>
        <link refId="12029"/>
        <link refId="12030"/>
        <link refId="12031"/>
        <link refId="12032"/>
        <link refId="12059"/>
        <link refId="12060"/>
        <link refId="12066"/>
        <link refId="12067"/>
        <link refId="12068"/>
        <link refId="12069"/>
        <link refId="12083"/>
        <link refId="12084"/>
        <link refId="12085"/>
        <link refId="12086"/>
        <link refId="12087"/>
        <link refId="12088"/>
        <link refId="12089"/>
        <link refId="12090"/>
        <link refId="12092"/>
        <link refId="12093"/>
        <link refId="12094"/>
        <link refId="12095"/>
        <link refId="12096"/>
        <link refId="12097"/>
        <link refId="12098"/>
        <link refId="12099"/>
        <link refId="121"/>
        <link refId="12100"/>
        <link refId="12101"/>
        <link refId="12102"/>
        <link refId="12103"/>
        <link refId="12104"/>
        <link refId="12105"/>
        <link refId="12133"/>
        <link refId="12134"/>
        <link refId="12149"/>
        <link refId="12150"/>
        <link refId="12151"/>
        <link refId="12152"/>
        <link refId="12153"/>
        <link refId="12154"/>
        <link refId="12155"/>
        <link refId="12156"/>
        <link refId="12161"/>
        <link refId="12162"/>
        <link refId="12163"/>
        <link refId="12164"/>
        <link refId="12167"/>
        <link refId="12168"/>
        <link refId="12171"/>
        <link refId="12172"/>
        <link refId="12173"/>
        <link refId="12174"/>
        <link refId="12175"/>
        <link refId="12176"/>
        <link refId="12177"/>
        <link refId="12178"/>
        <link refId="12179"/>
        <link refId="12180"/>
        <link refId="12181"/>
        <link refId="12182"/>
        <link refId="12183"/>
        <link refId="12184"/>
        <link refId="12185"/>
        <link refId="12186"/>
        <link refId="12187"/>
        <link refId="12188"/>
        <link refId="12189"/>
        <link refId="12190"/>
        <link refId="12197"/>
        <link refId="12198"/>
        <link refId="122"/>
        <link refId="12201"/>
        <link refId="12202"/>
        <link refId="12223"/>
        <link refId="12224"/>
        <link refId="12235"/>
        <link refId="12236"/>
        <link refId="12237"/>
        <link refId="12238"/>
        <link refId="12274"/>
        <link refId="12275"/>
        <link refId="12278"/>
        <link refId="12279"/>
        <link refId="12280"/>
        <link refId="12281"/>
        <link refId="12282"/>
        <link refId="12283"/>
        <link refId="12284"/>
        <link refId="12285"/>
        <link refId="12286"/>
        <link refId="12287"/>
        <link refId="12292"/>
        <link refId="12293"/>
        <link refId="12294"/>
        <link refId="12295"/>
        <link refId="12296"/>
        <link refId="12297"/>
        <link refId="12298"/>
        <link refId="12299"/>
        <link refId="123"/>
        <link refId="12300"/>
        <link refId="12301"/>
        <link refId="124"/>
        <link refId="12435"/>
        <link refId="12436"/>
        <link refId="12457"/>
        <link refId="12458"/>
        <link refId="12483"/>
        <link refId="12484"/>
        <link refId="125"/>
        <link refId="12501"/>
        <link refId="12502"/>
        <link refId="12503"/>
        <link refId="12504"/>
        <link refId="12513"/>
        <link refId="12514"/>
        <link refId="12517"/>
        <link refId="12518"/>
        <link refId="12521"/>
        <link refId="12522"/>
        <link refId="12523"/>
        <link refId="12524"/>
        <link refId="12525"/>
        <link refId="12526"/>
        <link refId="12527"/>
        <link refId="12528"/>
        <link refId="12529"/>
        <link refId="12530"/>
        <link refId="12540"/>
        <link refId="12541"/>
        <link refId="12542"/>
        <link refId="12543"/>
        <link refId="12544"/>
        <link refId="12545"/>
        <link refId="12546"/>
        <link refId="12547"/>
        <link refId="12548"/>
        <link refId="12549"/>
        <link refId="12550"/>
        <link refId="12551"/>
        <link refId="126"/>
        <link refId="12688"/>
        <link refId="12689"/>
        <link refId="12690"/>
        <link refId="12691"/>
        <link refId="12692"/>
        <link refId="12693"/>
        <link refId="12694"/>
        <link refId="12695"/>
        <link refId="12696"/>
        <link refId="12697"/>
        <link refId="12698"/>
        <link refId="12699"/>
        <link refId="127"/>
        <link refId="12700"/>
        <link refId="12701"/>
        <link refId="12702"/>
        <link refId="12703"/>
        <link refId="12706"/>
        <link refId="12707"/>
        <link refId="12708"/>
        <link refId="12709"/>
        <link refId="1271"/>
        <link refId="12710"/>
        <link refId="12711"/>
        <link refId="12712"/>
        <link refId="12713"/>
        <link refId="12714"/>
        <link refId="12715"/>
        <link refId="12716"/>
        <link refId="12717"/>
        <link refId="1272"/>
        <link refId="12763"/>
        <link refId="12764"/>
        <link refId="12765"/>
        <link refId="12766"/>
        <link refId="12767"/>
        <link refId="12768"/>
        <link refId="12769"/>
        <link refId="12770"/>
        <link refId="12771"/>
        <link refId="12772"/>
        <link refId="12773"/>
        <link refId="12774"/>
        <link refId="12775"/>
        <link refId="12776"/>
        <link refId="12777"/>
        <link refId="12778"/>
        <link refId="12779"/>
        <link refId="12780"/>
        <link refId="12781"/>
        <link refId="12782"/>
        <link refId="12783"/>
        <link refId="12784"/>
        <link refId="12785"/>
        <link refId="12786"/>
        <link refId="12787"/>
        <link refId="12788"/>
        <link refId="12789"/>
        <link refId="12790"/>
        <link refId="12791"/>
        <link refId="12792"/>
        <link refId="12793"/>
        <link refId="12794"/>
        <link refId="12795"/>
        <link refId="12796"/>
        <link refId="12797"/>
        <link refId="12798"/>
        <link refId="12799"/>
        <link refId="128"/>
        <link refId="12800"/>
        <link refId="12801"/>
        <link refId="12802"/>
        <link refId="12803"/>
        <link refId="12804"/>
        <link refId="12861"/>
        <link refId="12862"/>
        <link refId="12865"/>
        <link refId="12866"/>
        <link refId="12867"/>
        <link refId="12868"/>
        <link refId="12869"/>
        <link refId="12870"/>
        <link refId="12871"/>
        <link refId="12872"/>
        <link refId="12873"/>
        <link refId="12874"/>
        <link refId="12885"/>
        <link refId="12892"/>
        <link refId="12893"/>
        <link refId="12894"/>
        <link refId="12895"/>
        <link refId="12896"/>
        <link refId="12897"/>
        <link refId="129"/>
        <link refId="12902"/>
        <link refId="12903"/>
        <link refId="12904"/>
        <link refId="12905"/>
        <link refId="12906"/>
        <link refId="12907"/>
        <link refId="12908"/>
        <link refId="12909"/>
        <link refId="12910"/>
        <link refId="12911"/>
        <link refId="12912"/>
        <link refId="12913"/>
        <link refId="12914"/>
        <link refId="12915"/>
        <link refId="12916"/>
        <link refId="12917"/>
        <link refId="12918"/>
        <link refId="12919"/>
        <link refId="12920"/>
        <link refId="12921"/>
        <link refId="12922"/>
        <link refId="12923"/>
        <link refId="12924"/>
        <link refId="12925"/>
        <link refId="12926"/>
        <link refId="12927"/>
        <link refId="12928"/>
        <link refId="12929"/>
        <link refId="12930"/>
        <link refId="12931"/>
        <link refId="12940"/>
        <link refId="12941"/>
        <link refId="12942"/>
        <link refId="12943"/>
        <link refId="12946"/>
        <link refId="12947"/>
        <link refId="12952"/>
        <link refId="12953"/>
        <link refId="12954"/>
        <link refId="12955"/>
        <link refId="12956"/>
        <link refId="12957"/>
        <link refId="12958"/>
        <link refId="12959"/>
        <link refId="12960"/>
        <link refId="12961"/>
        <link refId="12962"/>
        <link refId="12963"/>
        <link refId="12964"/>
        <link refId="12965"/>
        <link refId="12966"/>
        <link refId="12967"/>
        <link refId="12968"/>
        <link refId="12969"/>
        <link refId="12970"/>
        <link refId="12971"/>
        <link refId="12972"/>
        <link refId="12973"/>
        <link refId="12974"/>
        <link refId="12975"/>
        <link refId="12976"/>
        <link refId="12977"/>
        <link refId="12978"/>
        <link refId="12979"/>
        <link refId="12980"/>
        <link refId="12981"/>
        <link refId="12982"/>
        <link refId="12983"/>
        <link refId="12984"/>
        <link refId="12985"/>
        <link refId="12996"/>
        <link refId="12997"/>
        <link refId="13"/>
        <link refId="130"/>
        <link refId="13004"/>
        <link refId="13005"/>
        <link refId="13006"/>
        <link refId="13007"/>
        <link refId="13008"/>
        <link refId="13009"/>
        <link refId="13010"/>
        <link refId="13011"/>
        <link refId="13012"/>
        <link refId="13013"/>
        <link refId="13014"/>
        <link refId="13015"/>
        <link refId="13022"/>
        <link refId="13023"/>
        <link refId="13024"/>
        <link refId="13025"/>
        <link refId="13026"/>
        <link refId="13027"/>
        <link refId="13028"/>
        <link refId="13029"/>
        <link refId="13030"/>
        <link refId="13031"/>
        <link refId="13032"/>
        <link refId="13033"/>
        <link refId="13038"/>
        <link refId="13039"/>
        <link refId="13040"/>
        <link refId="13041"/>
        <link refId="13042"/>
        <link refId="13043"/>
        <link refId="13044"/>
        <link refId="13045"/>
        <link refId="13060"/>
        <link refId="13061"/>
        <link refId="13074"/>
        <link refId="13075"/>
        <link refId="13094"/>
        <link refId="13095"/>
        <link refId="13096"/>
        <link refId="13097"/>
        <link refId="13098"/>
        <link refId="13099"/>
        <link refId="131"/>
        <link refId="13102"/>
        <link refId="13103"/>
        <link refId="13104"/>
        <link refId="13105"/>
        <link refId="13108"/>
        <link refId="13109"/>
        <link refId="13112"/>
        <link refId="13113"/>
        <link refId="13114"/>
        <link refId="13115"/>
        <link refId="13123"/>
        <link refId="13124"/>
        <link refId="13125"/>
        <link refId="13126"/>
        <link refId="13127"/>
        <link refId="13128"/>
        <link refId="13129"/>
        <link refId="13130"/>
        <link refId="13131"/>
        <link refId="13132"/>
        <link refId="13133"/>
        <link refId="13134"/>
        <link refId="13141"/>
        <link refId="13142"/>
        <link refId="13143"/>
        <link refId="13144"/>
        <link refId="13145"/>
        <link refId="13146"/>
        <link refId="13147"/>
        <link refId="13148"/>
        <link refId="13149"/>
        <link refId="13150"/>
        <link refId="13151"/>
        <link refId="13152"/>
        <link refId="13160"/>
        <link refId="13161"/>
        <link refId="13166"/>
        <link refId="13167"/>
        <link refId="13168"/>
        <link refId="13169"/>
        <link refId="13170"/>
        <link refId="13171"/>
        <link refId="13172"/>
        <link refId="13173"/>
        <link refId="13185"/>
        <link refId="13186"/>
        <link refId="1319"/>
        <link refId="13191"/>
        <link refId="13192"/>
        <link refId="13193"/>
        <link refId="13194"/>
        <link refId="13197"/>
        <link refId="13198"/>
        <link refId="13199"/>
        <link refId="132"/>
        <link refId="1320"/>
        <link refId="13200"/>
        <link refId="13201"/>
        <link refId="13202"/>
        <link refId="13217"/>
        <link refId="13218"/>
        <link refId="133"/>
        <link refId="13305"/>
        <link refId="13306"/>
        <link refId="13307"/>
        <link refId="13308"/>
        <link refId="13317"/>
        <link refId="13318"/>
        <link refId="1332"/>
        <link refId="1333"/>