<?xml version="1.0" encoding="utf-8"?>
<!DOCTYPE population SYSTEM "http://www.matsim.org/files/dtd/population_v6.dtd">

<population>



<!-- ====================================================================== -->

	<person id="0">
		<plan selected="yes">
			<activity type="home" x="460167.2168790446" y="119614.41162166918" end_time="07:00:00" >
			</activity>
			<leg mode="car">
			</leg>
			<activity type="shelter" x="543523.5977603454" y="98319.65254171292" start_time="08:00:00" end_time="14:00:00" >
			</activity>
		</plan>

	</person>

<!-- ====================================================================== -->

	<person id="1">
		<plan selected="yes">
			<activity type="home" x="507906.268509891" y="136499.9946299723" end_time="07:00:00" >
			</activity>
			<leg mode="car">
			</leg>
			<activity type="shelter" x="543523.5977603454" y="98319.65254171292" start_time="08:00:00" end_time="14:00:00" >
			</activity>
		</plan>

	</person>

<!-- ====================================================================== -->

	<person id="10">
		<plan selected="yes">
			<activity type="home" x="448582.30557616276" y="88847.58715725718" end_time="07:00:00" >
			</activity>
			<leg mode="car">
			</leg>
			<activity type="shelter" x="543523.5977603454" y="98319.65254171292" start_time="08:00:00" end_time="14:00:00" >
			</activity>
		</plan>

	</person>

<!-- ====================================================================== -->

	<person id="100">
		<plan selected="yes">
			<activity type="home" x="466929.99568158423" y="128958.77488003238" end_time="07:00:00" >
			</activity>
			<leg mode="car">
			</leg>
			<activity type="shelter" x="543523.5977603454" y="98319.65254171292" start_time="08:00:00" end_time="14:00:00" >
			</activity>
		</plan>

	</person>

<!-- ====================================================================== -->

	<person id="101">
		<plan selected="yes">
			<activity type="home" x="560893.3379403276" y="70962.94685585916" end_time="07:00:00" >
			</activity>
			<leg mode="car">
			</leg>
			<activity type="shelter" x="543523.5977603454" y="98319.65254171292" start_time="08:00:00" end_time="14:00:00" >
			</activity>
		</plan>

	</person>

<!-- ====================================================================== -->

	<person id="102">
		<plan selected="yes">
			<activity type="home" x="449069.5524855492" y="86970.14267269429" end_time="07:00:00" >
			</activity>
			<leg mode="car">
			</leg>
			<activity type="shelter" x="543523.5977603454" y="98319.65254171292" start_time="08:00:00" end_time="14:00:00" >
			</activity>
		</plan>

	</person>

<!-- ====================================================================== -->

	<person id="103">
		<plan selected="yes">
			<activity type="home" x="545597.2538488237" y="99276.5464588448" end_time="07:00:00" >
			</activity>
			<leg mode="car">
			</leg>
			<activity type="shelter" x="543523.5977603454" y="98319.65254171292" start_time="08:00:00" end_time="14:00:00" >
			</activity>
		</plan>

	</person>

<!-- ====================================================================== -->

	<person id="104">
		<plan selected="yes">
			<activity type="home" x="445068.4789831917" y="216192.41723147946" end_time="07:00:00" >
			</activity>
			<leg mode="car">
			</leg>
			<activity type="shelter" x="543523.5977603454" y="98319.65254171292" start_time="08:00:00" end_time="14:00:00" >
			</activity>
		</plan>

	</person>

<!-- ====================================================================== -->

	<person id="105">
		<plan selected="yes">
			<activity type="home" x="523755.11249759316" y="66445.72113785827" end_time="07:00:00" >
			</activity>
			<leg mode="car">
			</leg>
			<activity type="shelter" x="543523.5977603454" y="98319.65254171292" start_time="08:00:00" end_time="14:00:00" >
			</activity>
		</plan>

	</person>

<!-- ====================================================================== -->

	<person id="106">
		<plan selected="yes">
			<activity type="home" x="489501.91835089354" y="71951.74433076037" end_time="07:00:00" >
			</activity>
			<leg mode="car">
			</leg>
			<activity type="shelter" x="543523.5977603454" y="98319.65254171292" start_time="08:00:00" end_time="14:00:00" >
			</activity>
		</plan>

	</person>

<!-- ====================================================================== -->

	<person id="107">
		<plan selected="yes">
			<activity type="home" x="543330.8107088322" y="98881.70454167307" end_time="07:00:00" >
			</activity>
			<leg mode="car">
			</leg>
			<activity type="shelter" x="543523.5977603454" y="98319.65254171292" start_time="08:00:00" end_time="14:00:00" >
			</activity>
		</plan>

	</person>

<!-- ====================================================================== -->

	<person id="108">
		<plan selected="yes">
			<activity type="home" x="543346.2412311374" y="98700.91352986901" end_time="07:00:00" >
			</activity>
			<leg mode="car">
			</leg>
			<activity type="shelter" x="543523.5977603454" y="98319.65254171292" start_time="08:00:00" end_time="14:00:00" >
			</activity>
		</plan>

	</person>

<!-- ====================================================================== -->

	<person id="109">
		<plan selected="yes">
			<activity type="home" x="568334.0788640616" y="74598.46041490055" end_time="07:00:00" >
			</activity>
			<leg mode="car">
			</leg>
			<activity type="shelter" x="543523.5977603454" y="98319.65254171292" start_time="08:00:00" end_time="14:00:00" >
			</activity>
		</plan>

	</person>

<!-- ====================================================================== -->

	<person id="11">
		<plan selected="yes">
			<activity type="home" x="525458.6971048119" y="65972.66242965848" end_time="07:00:00" >
			</activity>
			<leg mode="car">
			</leg>
			<activity type="shelter" x="543523.5977603454" y="98319.65254171292" start_time="08:00:00" end_time="14:00:00" >
			</activity>
		</plan>

	</person>

<!-- ====================================================================== -->

	<person id="110">
		<plan selected="yes">
			<activity type="home" x="522372.4648499122" y="62652.79193633137" end_time="07:00:00" >
			</activity>
			<leg mode="car">
			</leg>
			<activity type="shelter" x="543523.5977603454" y="98319.65254171292" start_time="08:00:00" end_time="14:00:00" >
			</activity>
		</plan>

	</person>

<!-- ====================================================================== -->

	<person id="111">
		<plan selected="yes">
			<activity type="home" x="449805.2486144044" y="212489.71264569098" end_time="07:00:00" >
			</activity>
			<leg mode="car">
			</leg>
			<activity type="shelter" x="543523.5977603454" y="98319.65254171292" start_time="08:00:00" end_time="14:00:00" >
			</activity>
		</plan>

	</person>

<!-- ====================================================================== -->

	<person id="112">
		<plan selected="yes">
			<activity type="home" x="484558.19769474736" y="11404.702065819756" end_time="07:00:00" >
			</activity>
			<leg mode="car">
			</leg>
			<activity type="shelter" x="543523.5977603454" y="98319.65254171292" start_time="08:00:00" end_time="14:00:00" >
			</activity>
		</plan>

	</person>

<!-- ====================================================================== -->

	<person id="113">
		<plan selected="yes">
			<activity type="home" x="541492.2800839836" y="61265.03268540727" end_time="07:00:00" >
			</activity>
			<leg mode="car">
			</leg>
			<activity type="shelter" x="543523.5977603454" y="98319.65254171292" start_time="08:00:00" end_time="14:00:00" >
			</activity>
		</plan>

	</person>

<!-- ====================================================================== -->

	<person id="114">
		<plan selected="yes">
			<activity type="home" x="561510.5932512544" y="74684.56470372673" end_time="07:00:00" >
			</activity>
			<leg mode="car">
			</leg>
			<activity type="shelter" x="543523.5977603454" y="98319.65254171292" start_time="08:00:00" end_time="14:00:00" >
			</activity>
		</plan>

	</person>

<!-- ====================================================================== -->

	<person id="115">
		<plan selected="yes">
			<activity type="home" x="522372.4648499122" y="62652.79193633137" end_time="07:00:00" >
			</activity>
			<leg mode="car">
			</leg>
			<activity type="shelter" x="543523.5977603454" y="98319.65254171292" start_time="08:00:00" end_time="14:00:00" >
			</activity>
		</plan>

	</person>

<!-- ====================================================================== -->

	<person id="116">
		<plan selected="yes">
			<activity type="home" x="447272.89176644065" y="216260.6441899393" end_time="07:00:00" >
			</activity>
			<leg mode="car">
			</leg>
			<activity type="shelter" x="543523.5977603454" y="98319.65254171292" start_time="08:00:00" end_time="14:00:00" >
			</activity>
		</plan>

	</person>

<!-- ====================================================================== -->

	<person id="117">
		<plan selected="yes">
			<activity type="home" x="448278.81282090925" y="89573.86333462561" end_time="07:00:00" >
			</activity>
			<leg mode="car">
			</leg>
			<activity type="shelter" x="543523.5977603454" y="98319.65254171292" start_time="08:00:00" end_time="14:00:00" >
			</activity>
		</plan>

	</person>

<!-- ====================================================================== -->

	<person id="118">
		<plan selected="yes">
			<activity type="home" x="522394.4694694492" y="65073.366971616706" end_time="07:00:00" >
			</activity>
			<leg mode="car">
			</leg>
			<activity type="shelter" x="543523.5977603454" y="98319.65254171292" start_time="08:00:00" end_time="14:00:00" >
			</activity>
		</plan>

	</person>

<!-- ====================================================================== -->

	<person id="119">
		<plan selected="yes">
			<activity type="home" x="402096.75628714426" y="205583.31369428447" end_time="07:00:00" >
			</activity>
			<leg mode="car">
			</leg>
			<activity type="shelter" x="543523.5977603454" y="98319.65254171292" start_time="08:00:00" end_time="14:00:00" >
			</activity>
		</plan>

	</person>

<!-- ====================================================================== -->

	<person id="12">
		<plan selected="yes">
			<activity type="home" x="551470.4302357398" y="73178.63045845178" end_time="07:00:00" >
			</activity>
			<leg mode="car">
			</leg>
			<activity type="shelter" x="543523.5977603454" y="98319.65254171292" start_time="08:00:00" end_time="14:00:00" >
			</activity>
		</plan>

	</person>

<!-- ====================================================================== -->

	<person id="120">
		<plan selected="yes">
			<activity type="home" x="449069.5524855492" y="86970.14267269429" end_time="07:00:00" >
			</activity>
			<leg mode="car">
			</leg>
			<activity type="shelter" x="543523.5977603454" y="98319.65254171292" start_time="08:00:00" end_time="14:00:00" >
			</activity>
		</plan>

	</person>

<!-- ====================================================================== -->

	<person id="121">
		<plan selected="yes">
			<activity type="home" x="448254.58479202166" y="216214.41469352308" end_time="07:00:00" >
			</activity>
			<leg mode="car">
			</leg>
			<activity type="shelter" x="543523.5977603454" y="98319.65254171292" start_time="08:00:00" end_time="14:00:00" >
			</activity>
		</plan>

	</person>

<!-- ====================================================================== -->

	<person id="122">
		<plan selected="yes">
			<activity type="home" x="380032.34039126284" y="240371.75096798004" end_time="07:00:00" >
			</activity>
			<leg mode="car">
			</leg>
			<activity type="shelter" x="543523.5977603454" y="98319.65254171292" start_time="08:00:00" end_time="14:00:00" >
			</activity>
		</plan>

	</person>

<!-- ====================================================================== -->

	<person id="123">
		<plan selected="yes">
			<activity type="home" x="522394.4694694492" y="65073.366971616706" end_time="07:00:00" >
			</activity>
			<leg mode="car">
			</leg>
			<activity type="shelter" x="543523.5977603454" y="98319.65254171292" start_time="08:00:00" end_time="14:00:00" >
			</activity>
		</plan>

	</person>

<!-- ====================================================================== -->

	<person id="124">
		<plan selected="yes">
			<activity type="home" x="543346.2412311374" y="98700.91352986901" end_time="07:00:00" >
			</activity>
			<leg mode="car">
			</leg>
			<activity type="shelter" x="543523.5977603454" y="98319.65254171292" start_time="08:00:00" end_time="14:00:00" >
			</activity>
		</plan>

	</person>

<!-- ====================================================================== -->

	<person id="125">
		<plan selected="yes">
			<activity type="home" x="421845.56408341083" y="208460.85409259336" end_time="07:00:00" >
			</activity>
			<leg mode="car">
			</leg>
			<activity type="shelter" x="543523.5977603454" y="98319.65254171292" start_time="08:00:00" end_time="14:00:00" >
			</activity>
		</plan>

	</person>

<!-- ====================================================================== -->

	<person id="126">
		<plan selected="yes">
			<activity type="home" x="398301.8269755003" y="227634.91853919602" end_time="07:00:00" >
			</activity>
			<leg mode="car">
			</leg>
			<activity type="shelter" x="543523.5977603454" y="98319.65254171292" start_time="08:00:00" end_time="14:00:00" >
			</activity>
		</plan>

	</person>

<!-- ====================================================================== -->

	<person id="127">
		<plan selected="yes">
			<activity type="home" x="401880.8473010814" y="205124.8366181165" end_time="07:00:00" >
			</activity>
			<leg mode="car">
			</leg>
			<activity type="shelter" x="543523.5977603454" y="98319.65254171292" start_time="08:00:00" end_time="14:00:00" >
			</activity>
		</plan>

	</person>

<!-- ====================================================================== -->

	<person id="128">
		<plan selected="yes">
			<activity type="home" x="340456.9469594263" y="251310.54680783572" end_time="07:00:00" >
			</activity>
			<leg mode="car">
			</leg>
			<activity type="shelter" x="543523.5977603454" y="98319.65254171292" start_time="08:00:00" end_time="14:00:00" >
			</activity>
		</plan>

	</person>

<!-- ====================================================================== -->

	<person id="129">
		<plan selected="yes">
			<activity type="home" x="422669.4694909089" y="214509.42240256455" end_time="07:00:00" >
			</activity>
			<leg mode="car">
			</leg>
			<activity type="shelter" x="543523.5977603454" y="98319.65254171292" start_time="08:00:00" end_time="14:00:00" >
			</activity>
		</plan>

	</person>

<!-- ====================================================================== -->

	<person id="13">
		<plan selected="yes">
			<activity type="home" x="348720.7580778032" y="257787.087452983" end_time="07:00:00" >
			</activity>
			<leg mode="car">
			</leg>
			<activity type="shelter" x="543523.5977603454" y="98319.65254171292" start_time="08:00:00" end_time="14:00:00" >
			</activity>
		</plan>

	</person>

<!-- ====================================================================== -->

	<person id="130">
		<plan selected="yes">
			<activity type="home" x="395174.2980972804" y="223458.60623504946" end_time="07:00:00" >
			</activity>
			<leg mode="car">
			</leg>
			<activity type="shelter" x="543523.5977603454" y="98319.65254171292" start_time="08:00:00" end_time="14:00:00" >
			</activity>
		</plan>

	</person>

<!-- ====================================================================== -->

	<person id="131">
		<plan selected="yes">
			<activity type="home" x="375742.5084683371" y="231610.96204431835" end_time="07:00:00" >
			</activity>
			<leg mode="car">
			</leg>
			<activity type="shelter" x="543523.5977603454" y="98319.65254171292" start_time="08:00:00" end_time="14:00:00" >
			</activity>
		</plan>

	</person>

<!-- ====================================================================== -->

	<person id="132">
		<plan selected="yes">
			<activity type="home" x="396834.5968081127" y="219053.4500707859" end_time="07:00:00" >
			</activity>
			<leg mode="car">
			</leg>
			<activity type="shelter" x="543523.5977603454" y="98319.65254171292" start_time="08:00:00" end_time="14:00:00" >
			</activity>
		</plan>

	</person>

<!-- ====================================================================== -->

	<person id="133">
		<plan selected="yes">
			<activity type="home" x="408868.2402251331" y="230211.2801974708" end_time="07:00:00" >
			</activity>
			<leg mode="car">
			</leg>
			<activity type="shelter" x="543523.5977603454" y="98319.65254171292" start_time="08:00:00" end_time="14:00:00" >
			</activity>
		</plan>

	</person>

<!-- ====================================================================== -->

	<person id="134">
		<plan selected="yes">
			<activity type="home" x="522372.4648499122" y="62652.79193633137" end_time="07:00:00" >
			</activity>
			<leg mode="car">
			</leg>
			<activity type="shelter" x="543523.5977603454" y="98319.65254171292" start_time="08:00:00" end_time="14:00:00" >
			</activity>
		</plan>

	</person>

<!-- ====================================================================== -->

	<person id="135">
		<plan selected="yes">
			<activity type="home" x="395174.2980972804" y="223458.60623504946" end_time="07:00:00" >
			</activity>
			<leg mode="car">
			</leg>
			<activity type="shelter" x="543523.5977603454" y="98319.65254171292" start_time="08:00:00" end_time="14:00:00" >
			</activity>
		</plan>

	</person>

<!-- ====================================================================== -->

	<person id="136">
		<plan selected="yes">
			<activity type="home" x="413765.31689390144" y="211362.41206035198" end_time="07:00:00" >
			</activity>
			<leg mode="car">
			</leg>
			<activity type="shelter" x="543523.5977603454" y="98319.65254171292" start_time="08:00:00" end_time="14:00:00" >
			</activity>
		</plan>

	</person>

<!-- ====================================================================== -->

	<person id="137">
		<plan selected="yes">
			<activity type="home" x="449277.8022535322" y="212713.80757987557" end_time="07:00:00" >
			</activity>
			<leg mode="car">
			</leg>
			<activity type="shelter" x="543523.5977603454" y="98319.65254171292" start_time="08:00:00" end_time="14:00:00" >
			</activity>
		</plan>

	</person>

<!-- ====================================================================== -->

	<person id="138">
		<plan selected="yes">
			<activity type="home" x="448278.81282090925" y="89573.86333462561" end_time="07:00:00" >
			</activity>
			<leg mode="car">
			</leg>
			<activity type="shelter" x="543523.5977603454" y="98319.65254171292" start_time="08:00:00" end_time="14:00:00" >
			</activity>
		</plan>

	</person>

<!-- ====================================================================== -->

	<person id="139">
		<plan selected="yes">
			<activity type="home" x="352176.45391558163" y="221078.55451255018" end_time="07:00:00" >
			</activity>
			<leg mode="car">
			</leg>
			<activity type="shelter" x="543523.5977603454" y="98319.65254171292" start_time="08:00:00" end_time="14:00:00" >
			</activity>
		</plan>

	</person>

<!-- ====================================================================== -->

	<person id="14">
		<plan selected="yes">
			<activity type="home" x="418625.6418744966" y="229476.61697625904" end_time="07:00:00" >
			</activity>
			<leg mode="car">
			</leg>
			<activity type="shelter" x="543523.5977603454" y="98319.65254171292" start_time="08:00:00" end_time="14:00:00" >
			</activity>
		</plan>

	</person>

<!-- ====================================================================== -->

	<person id="140">
		<plan selected="yes">
			<activity type="home" x="399183.89615015144" y="225611.28365318422" end_time="07:00:00" >
			</activity>
			<leg mode="car">
			</leg>
			<activity type="shelter" x="543523.5977603454" y="98319.65254171292" start_time="08:00:00" end_time="14:00:00" >
			</activity>
		</plan>

	</person>

<!-- ====================================================================== -->

	<person id="141">
		<plan selected="yes">
			<activity type="home" x="421845.56408341083" y="208460.85409259336" end_time="07:00:00" >
			</activity>
			<leg mode="car">
			</leg>
			<activity type="shelter" x="543523.5977603454" y="98319.65254171292" start_time="08:00:00" end_time="14:00:00" >
			</activity>
		</plan>

	</person>

<!-- ====================================================================== -->

	<person id="142">
		<plan selected="yes">
			<activity type="home" x="522242.1483184095" y="64929.815718147656" end_time="07:00:00" >
			</activity>
			<leg mode="car">
			</leg>
			<activity type="shelter" x="543523.5977603454" y="98319.65254171292" start_time="08:00:00" end_time="14:00:00" >
			</activity>
		</plan>

	</person>

<!-- ====================================================================== -->

	<person id="143">
		<plan selected="yes">
			<activity type="home" x="522241.16316387727" y="64933.27038051805" end_time="07:00:00" >
			</activity>
			<leg mode="car">
			</leg>
			<activity type="shelter" x="543523.5977603454" y="98319.65254171292" start_time="08:00:00" end_time="14:00:00" >
			</activity>
		</plan>

	</person>

<!-- ====================================================================== -->

	<person id="144">
		<plan selected="yes">
			<activity type="home" x="377493.68920745293" y="226170.8110242589" end_time="07:00:00" >
			</activity>
			<leg mode="car">
			</leg>
			<activity type="shelter" x="543523.5977603454" y="98319.65254171292" start_time="08:00:00" end_time="14:00:00" >
			</activity>
		</plan>

	</person>

<!-- ====================================================================== -->

	<person id="145">
		<plan selected="yes">
			<activity type="home" x="418508.7739070577" y="213374.40926617663" end_time="07:00:00" >
			</activity>
			<leg mode="car">
			</leg>
			<activity type="shelter" x="543523.5977603454" y="98319.65254171292" start_time="08:00:00" end_time="14:00:00" >
			</activity>
		</plan>

	</person>

<!-- ====================================================================== -->

	<person id="146">
		<plan selected="yes">
			<activity type="home" x="404093.72676022793" y="195647.67218574206" end_time="07:00:00" >
			</activity>
			<leg mode="car">
			</leg>
			<activity type="shelter" x="543523.5977603454" y="98319.65254171292" start_time="08:00:00" end_time="14:00:00" >
			</activity>
		</plan>

	</person>

<!-- ====================================================================== -->

	<person id="147">
		<plan selected="yes">
			<activity type="home" x="444724.76713598537" y="205219.38130184778" end_time="07:00:00" >
			</activity>
			<leg mode="car">
			</leg>
			<activity type="shelter" x="543523.5977603454" y="98319.65254171292" start_time="08:00:00" end_time="14:00:00" >
			</activity>
		</plan>

	</person>

<!-- ====================================================================== -->

	<person id="148">
		<plan selected="yes">
			<activity type="home" x="354569.6282098007" y="211825.4296737758" end_time="07:00:00" >
			</activity>
			<leg mode="car">
			</leg>
			<activity type="shelter" x="543523.5977603454" y="98319.65254171292" start_time="08:00:00" end_time="14:00:00" >
			</activity>
		</plan>

	</person>

<!-- ====================================================================== -->

	<person id="15">
		<plan selected="yes">
			<activity type="home" x="451196.5908392409" y="81037.2770021426" end_time="07:00:00" >
			</activity>
			<leg mode="car">
			</leg>
			<activity type="shelter" x="543523.5977603454" y="98319.65254171292" start_time="08:00:00" end_time="14:00:00" >
			</activity>
		</plan>

	</person>

<!-- ====================================================================== -->

	<person id="16">
		<plan selected="yes">
			<activity type="home" x="424860.2937027264" y="228700.92899603158" end_time="07:00:00" >
			</activity>
			<leg mode="car">
			</leg>
			<activity type="shelter" x="543523.5977603454" y="98319.65254171292" start_time="08:00:00" end_time="14:00:00" >
			</activity>
		</plan>

	</person>

<!-- ====================================================================== -->

	<person id="17">
		<plan selected="yes">
			<activity type="home" x="401932.79899019597" y="205187.3932305939" end_time="07:00:00" >
			</activity>
			<leg mode="car">
			</leg>
			<activity type="shelter" x="543523.5977603454" y="98319.65254171292" start_time="08:00:00" end_time="14:00:00" >
			</activity>
		</plan>

	</person>

<!-- ====================================================================== -->

	<person id="18">
		<plan selected="yes">
			<activity type="home" x="447272.89176644065" y="216260.6441899393" end_time="07:00:00" >
			</activity>
			<leg mode="car">
			</leg>
			<activity type="shelter" x="543523.5977603454" y="98319.65254171292" start_time="08:00:00" end_time="14:00:00" >
			</activity>
		</plan>

	</person>

<!-- ====================================================================== -->

	<person id="19">
		<plan selected="yes">
			<activity type="home" x="554738.7906594496" y="57736.95747540473" end_time="07:00:00" >
			</activity>
			<leg mode="car">
			</leg>
			<activity type="shelter" x="543523.5977603454" y="98319.65254171292" start_time="08:00:00" end_time="14:00:00" >
			</activity>
		</plan>

	</person>

<!-- ====================================================================== -->

	<person id="2">
		<plan selected="yes">
			<activity type="home" x="563410.8549371811" y="71271.43155036362" end_time="07:00:00" >
			</activity>
			<leg mode="car">
			</leg>
			<activity type="shelter" x="543523.5977603454" y="98319.65254171292" start_time="08:00:00" end_time="14:00:00" >
			</activity>
		</plan>

	</person>

<!-- ====================================================================== -->

	<person id="20">
		<plan selected="yes">
			<activity type="home" x="557418.9364998378" y="73995.78777396627" end_time="07:00:00" >
			</activity>
			<leg mode="car">
			</leg>
			<activity type="shelter" x="543523.5977603454" y="98319.65254171292" start_time="08:00:00" end_time="14:00:00" >
			</activity>
		</plan>

	</person>

<!-- ====================================================================== -->

	<person id="21">
		<plan selected="yes">
			<activity type="home" x="557418.9364998378" y="73995.78777396627" end_time="07:00:00" >
			</activity>
			<leg mode="car">
			</leg>
			<activity type="shelter" x="543523.5977603454" y="98319.65254171292" start_time="08:00:00" end_time="14:00:00" >
			</activity>
		</plan>

	</person>

<!-- ====================================================================== -->

	<person id="22">
		<plan selected="yes">
			<activity type="home" x="399656.20861560124" y="228050.73368200642" end_time="07:00:00" >
			</activity>
			<leg mode="car">
			</leg>
			<activity type="shelter" x="543523.5977603454" y="98319.65254171292" start_time="08:00:00" end_time="14:00:00" >
			</activity>
		</plan>

	</person>

<!-- ====================================================================== -->

	<person id="23">
		<plan selected="yes">
			<activity type="home" x="560893.3379403276" y="70962.94685585916" end_time="07:00:00" >
			</activity>
			<leg mode="car">
			</leg>
			<activity type="shelter" x="543523.5977603454" y="98319.65254171292" start_time="08:00:00" end_time="14:00:00" >
			</activity>
		</plan>

	</person>

<!-- ====================================================================== -->

	<person id="24">
		<plan selected="yes">
			<activity type="home" x="376169.29681186227" y="232137.04105311332" end_time="07:00:00" >
			</activity>
			<leg mode="car">
			</leg>
			<activity type="shelter" x="543523.5977603454" y="98319.65254171292" start_time="08:00:00" end_time="14:00:00" >
			</activity>
		</plan>

	</person>

<!-- ====================================================================== -->

	<person id="25">
		<plan selected="yes">
			<activity type="home" x="448278.81282090925" y="89573.86333462561" end_time="07:00:00" >
			</activity>
			<leg mode="car">
			</leg>
			<activity type="shelter" x="543523.5977603454" y="98319.65254171292" start_time="08:00:00" end_time="14:00:00" >
			</activity>
		</plan>

	</person>

<!-- ====================================================================== -->

	<person id="26">
		<plan selected="yes">
			<activity type="home" x="560893.3379403276" y="70962.94685585916" end_time="07:00:00" >
			</activity>
			<leg mode="car">
			</leg>
			<activity type="shelter" x="543523.5977603454" y="98319.65254171292" start_time="08:00:00" end_time="14:00:00" >
			</activity>
		</plan>

	</person>

<!-- ====================================================================== -->

	<person id="27">
		<plan selected="yes">
			<activity type="home" x="560893.3379403276" y="70962.94685585916" end_time="07:00:00" >
			</activity>
			<leg mode="car">
			</leg>
			<activity type="shelter" x="543523.5977603454" y="98319.65254171292" start_time="08:00:00" end_time="14:00:00" >
			</activity>
		</plan>

	</person>

<!-- ====================================================================== -->

	<person id="28">
		<plan selected="yes">
			<activity type="home" x="560893.3379403276" y="70962.94685585916" end_time="07:00:00" >
			</activity>
			<leg mode="car">
			</leg>
			<activity type="shelter" x="543523.5977603454" y="98319.65254171292" start_time="08:00:00" end_time="14:00:00" >
			</activity>
		</plan>

	</person>

<!-- ====================================================================== -->

	<person id="29">
		<plan selected="yes">
			<activity type="home" x="560893.3379403276" y="70962.94685585916" end_time="07:00:00" >
			</activity>
			<leg mode="car">
			</leg>
			<activity type="shelter" x="543523.5977603454" y="98319.65254171292" start_time="08:00:00" end_time="14:00:00" >
			</activity>
		</plan>

	</person>
