<?xml version="1.0" encoding="utf-8"?>
<!DOCTYPE population SYSTEM "http://www.matsim.org/files/dtd/population_v5.dtd">
 
<population>

<!-- ====================================================================== -->

	<person id="person1" employed="no">
		<plan selected="yes">
			<act type="work" link="202" end_time="00:00:00" />
			<leg mode="car" dep_time="00:00:00" trav_time="00:01:00" arr_time="00:01:00">
			
			</leg> 
			<act type="home" link="256"/>
		</plan>
	</person>

<!-- ====================================================================== -->

</population>
