<?xml version="1.0" encoding="utf-8"?>
<!DOCTYPE population SYSTEM "http://www.matsim.org/files/dtd/population_v6.dtd">

<population>



<!-- ====================================================================== -->

	<person id="0">
		<plan selected="yes">
			<activity type="home" x="1.0762738987340884E7" y="2.1537038273625813E7" end_time="07:00:00" >
			</activity>
			<leg mode="car">
			</leg>
			<activity type="shelter" x="1.064349036830065E7" y="2.3308259905406326E7" start_time="08:00:00" end_time="14:00:00" >
			</activity>
		</plan>

	</person>

<!-- ====================================================================== -->

	<person id="1">
		<plan selected="yes">
			<activity type="home" x="1.0763275415771676E7" y="2.1540873507729422E7" end_time="07:00:00" >
			</activity>
			<leg mode="car">
			</leg>
			<activity type="shelter" x="1.1416768504233208E7" y="2.181874349809644E7" start_time="08:00:00" end_time="14:00:00" >
			</activity>
		</plan>

	</person>

<!-- ====================================================================== -->

	<person id="10">
		<plan selected="yes">
			<activity type="home" x="1.0762955915779788E7" y="2.153857069741327E7" end_time="07:00:00" >
			</activity>
			<leg mode="car">
			</leg>
			<activity type="shelter" x="1.1038715391616482E7" y="2.1805581152292464E7" start_time="08:00:00" end_time="14:00:00" >
			</activity>
		</plan>

	</person>

<!-- ====================================================================== -->

	<person id="100">
		<plan selected="yes">
			<activity type="home" x="1.076293824779817E7" y="2.153844631824892E7" end_time="07:00:00" >
			</activity>
			<leg mode="car">
			</leg>
			<activity type="shelter" x="1.1416768504233208E7" y="2.181874349809644E7" start_time="08:00:00" end_time="14:00:00" >
			</activity>
		</plan>

	</person>

<!-- ====================================================================== -->

	<person id="1000">
		<plan selected="yes">
			<activity type="home" x="1.0762787752863903E7" y="2.1537379150271475E7" end_time="07:00:00" >
			</activity>
			<leg mode="car">
			</leg>
			<activity type="shelter" x="1.1069207272412876E7" y="2.169411007517969E7" start_time="08:00:00" end_time="14:00:00" >
			</activity>
		</plan>

	</person>

<!-- ====================================================================== -->

	<person id="1001">
		<plan selected="yes">
			<activity type="home" x="1.0763212200303819E7" y="2.1540433641645133E7" end_time="07:00:00" >
			</activity>
			<leg mode="car">
			</leg>
			<activity type="shelter" x="1.1038715391616482E7" y="2.1805581152292464E7" start_time="08:00:00" end_time="14:00:00" >
			</activity>
		</plan>

	</person>

<!-- ====================================================================== -->

	<person id="1002">
		<plan selected="yes">
			<activity type="home" x="1.0763048201117111E7" y="2.1539233932075992E7" end_time="07:00:00" >
			</activity>
			<leg mode="car">
			</leg>
			<activity type="shelter" x="1.1416768504233208E7" y="2.181874349809644E7" start_time="08:00:00" end_time="14:00:00" >
			</activity>
		</plan>

	</person>

<!-- ====================================================================== -->

	<person id="1003">
		<plan selected="yes">
			<activity type="home" x="1.0763326763122264E7" y="2.154122528646459E7" end_time="07:00:00" >
			</activity>
			<leg mode="car">
			</leg>
			<activity type="shelter" x="1.1069207272412876E7" y="2.169411007517969E7" start_time="08:00:00" end_time="14:00:00" >
			</activity>
		</plan>

	</person>

<!-- ====================================================================== -->

	<person id="1004">
		<plan selected="yes">
			<activity type="home" x="1.076275835254738E7" y="2.153717363566322E7" end_time="07:00:00" >
			</activity>
			<leg mode="car">
			</leg>
			<activity type="shelter" x="1.1416768504233208E7" y="2.181874349809644E7" start_time="08:00:00" end_time="14:00:00" >
			</activity>
		</plan>

	</person>

<!-- ====================================================================== -->

	<person id="1005">
		<plan selected="yes">
			<activity type="home" x="1.0763474430515917E7" y="2.1542294594265383E7" end_time="07:00:00" >
			</activity>
			<leg mode="car">
			</leg>
			<activity type="shelter" x="1.1069207272412876E7" y="2.169411007517969E7" start_time="08:00:00" end_time="14:00:00" >
			</activity>
		</plan>

	</person>

<!-- ====================================================================== -->

	<person id="1006">
		<plan selected="yes">
			<activity type="home" x="1.0763192160258533E7" y="2.1540280493047226E7" end_time="07:00:00" >
			</activity>
			<leg mode="car">
			</leg>
			<activity type="shelter" x="1.064349036830065E7" y="2.3308259905406326E7" start_time="08:00:00" end_time="14:00:00" >
			</activity>
		</plan>

	</person>

<!-- ====================================================================== -->

	<person id="1007">
		<plan selected="yes">
			<activity type="home" x="1.076343877008777E7" y="2.154205225812393E7" end_time="07:00:00" >
			</activity>
			<leg mode="car">
			</leg>
			<activity type="shelter" x="1.064349036830065E7" y="2.3308259905406326E7" start_time="08:00:00" end_time="14:00:00" >
			</activity>
		</plan>

	</person>

<!-- ====================================================================== -->

	<person id="1008">
		<plan selected="yes">
			<activity type="home" x="1.0762782404013388E7" y="2.1537338959526673E7" end_time="07:00:00" >
			</activity>
			<leg mode="car">
			</leg>
			<activity type="shelter" x="1.1069207272412876E7" y="2.169411007517969E7" start_time="08:00:00" end_time="14:00:00" >
			</activity>
		</plan>

	</person>

<!-- ====================================================================== -->

	<person id="1009">
		<plan selected="yes">
			<activity type="home" x="1.0763435467507208E7" y="2.1542029116093837E7" end_time="07:00:00" >
			</activity>
			<leg mode="car">
			</leg>
			<activity type="shelter" x="1.1416768504233208E7" y="2.181874349809644E7" start_time="08:00:00" end_time="14:00:00" >
			</activity>
		</plan>

	</person>

<!-- ====================================================================== -->

	<person id="101">
		<plan selected="yes">
			<activity type="home" x="1.0762835625039805E7" y="2.1537710651605036E7" end_time="07:00:00" >
			</activity>
			<leg mode="car">
			</leg>
			<activity type="shelter" x="1.064349036830065E7" y="2.3308259905406326E7" start_time="08:00:00" end_time="14:00:00" >
			</activity>
		</plan>

	</person>

<!-- ====================================================================== -->

	<person id="1010">
		<plan selected="yes">
			<activity type="home" x="1.0763307958990332E7" y="2.1541095149436444E7" end_time="07:00:00" >
			</activity>
			<leg mode="car">
			</leg>
			<activity type="shelter" x="1.0802588638292294E7" y="2.2698172264347777E7" start_time="08:00:00" end_time="14:00:00" >
			</activity>
		</plan>

	</person>

<!-- ====================================================================== -->

	<person id="1011">
		<plan selected="yes">
			<activity type="home" x="1.0763360306926025E7" y="2.1541492681463942E7" end_time="07:00:00" >
			</activity>
			<leg mode="car">
			</leg>
			<activity type="shelter" x="1.1069207272412876E7" y="2.169411007517969E7" start_time="08:00:00" end_time="14:00:00" >
			</activity>
		</plan>

	</person>

<!-- ====================================================================== -->

	<person id="1012">
		<plan selected="yes">
			<activity type="home" x="1.076358161420976E7" y="2.154304414158594E7" end_time="07:00:00" >
			</activity>
			<leg mode="car">
			</leg>
			<activity type="shelter" x="1.1038715391616482E7" y="2.1805581152292464E7" start_time="08:00:00" end_time="14:00:00" >
			</activity>
		</plan>

	</person>

<!-- ====================================================================== -->

	<person id="1013">
		<plan selected="yes">
			<activity type="home" x="1.0763420810293857E7" y="2.154189344855829E7" end_time="07:00:00" >
			</activity>
			<leg mode="car">
			</leg>
			<activity type="shelter" x="1.1038715391616482E7" y="2.1805581152292464E7" start_time="08:00:00" end_time="14:00:00" >
			</activity>
		</plan>

	</person>

<!-- ====================================================================== -->

	<person id="1014">
		<plan selected="yes">
			<activity type="home" x="1.0763314683074342E7" y="2.1541127588461008E7" end_time="07:00:00" >
			</activity>
			<leg mode="car">
			</leg>
			<activity type="shelter" x="1.064349036830065E7" y="2.3308259905406326E7" start_time="08:00:00" end_time="14:00:00" >
			</activity>
		</plan>

	</person>

<!-- ====================================================================== -->

	<person id="1015">
		<plan selected="yes">
			<activity type="home" x="1.0763291484344235E7" y="2.1540960625821695E7" end_time="07:00:00" >
			</activity>
			<leg mode="car">
			</leg>
			<activity type="shelter" x="1.1416768504233208E7" y="2.181874349809644E7" start_time="08:00:00" end_time="14:00:00" >
			</activity>
		</plan>

	</person>

<!-- ====================================================================== -->

	<person id="1016">
		<plan selected="yes">
			<activity type="home" x="1.0762874741818048E7" y="2.1538019178073406E7" end_time="07:00:00" >
			</activity>
			<leg mode="car">
			</leg>
			<activity type="shelter" x="1.064349036830065E7" y="2.3308259905406326E7" start_time="08:00:00" end_time="14:00:00" >
			</activity>
		</plan>

	</person>

<!-- ====================================================================== -->

	<person id="1017">
		<plan selected="yes">
			<activity type="home" x="1.076347728613755E7" y="2.1542300284471154E7" end_time="07:00:00" >
			</activity>
			<leg mode="car">
			</leg>
			<activity type="shelter" x="1.1038715391616482E7" y="2.1805581152292464E7" start_time="08:00:00" end_time="14:00:00" >
			</activity>
		</plan>

	</person>

<!-- ====================================================================== -->

	<person id="1018">
		<plan selected="yes">
			<activity type="home" x="1.0763422122430269E7" y="2.154191440799515E7" end_time="07:00:00" >
			</activity>
			<leg mode="car">
			</leg>
			<activity type="shelter" x="1.1038715391616482E7" y="2.1805581152292464E7" start_time="08:00:00" end_time="14:00:00" >
			</activity>
		</plan>

	</person>

<!-- ====================================================================== -->

	<person id="1019">
		<plan selected="yes">
			<activity type="home" x="1.0763569624028226E7" y="2.1542966879254296E7" end_time="07:00:00" >
			</activity>
			<leg mode="car">
			</leg>
			<activity type="shelter" x="1.1038715391616482E7" y="2.1805581152292464E7" start_time="08:00:00" end_time="14:00:00" >
			</activity>
		</plan>

	</person>

<!-- ====================================================================== -->

	<person id="102">
		<plan selected="yes">
			<activity type="home" x="1.076277758015772E7" y="2.1537329764879216E7" end_time="07:00:00" >
			</activity>
			<leg mode="car">
			</leg>
			<activity type="shelter" x="1.1416768504233208E7" y="2.181874349809644E7" start_time="08:00:00" end_time="14:00:00" >
			</activity>
		</plan>

	</person>

<!-- ====================================================================== -->

	<person id="1020">
		<plan selected="yes">
			<activity type="home" x="1.0763045459979238E7" y="2.1539214150090218E7" end_time="07:00:00" >
			</activity>
			<leg mode="car">
			</leg>
			<activity type="shelter" x="1.1416768504233208E7" y="2.181874349809644E7" start_time="08:00:00" end_time="14:00:00" >
			</activity>
		</plan>

	</person>

<!-- ====================================================================== -->

	<person id="1021">
		<plan selected="yes">
			<activity type="home" x="1.0762857711879995E7" y="2.1537884258411698E7" end_time="07:00:00" >
			</activity>
			<leg mode="car">
			</leg>
			<activity type="shelter" x="1.1416768504233208E7" y="2.181874349809644E7" start_time="08:00:00" end_time="14:00:00" >
			</activity>
		</plan>

	</person>

<!-- ====================================================================== -->

	<person id="1022">
		<plan selected="yes">
			<activity type="home" x="1.0763047807450835E7" y="2.153924089953391E7" end_time="07:00:00" >
			</activity>
			<leg mode="car">
			</leg>
			<activity type="shelter" x="1.064349036830065E7" y="2.3308259905406326E7" start_time="08:00:00" end_time="14:00:00" >
			</activity>
		</plan>

	</person>

<!-- ====================================================================== -->

	<person id="1023">
		<plan selected="yes">
			<activity type="home" x="1.0763238721147481E7" y="2.1540611745424747E7" end_time="07:00:00" >
			</activity>
			<leg mode="car">
			</leg>
			<activity type="shelter" x="1.1038715391616482E7" y="2.1805581152292464E7" start_time="08:00:00" end_time="14:00:00" >
			</activity>
		</plan>

	</person>

<!-- ====================================================================== -->

	<person id="1024">
		<plan selected="yes">
			<activity type="home" x="1.0762870999043355E7" y="2.1537978823494066E7" end_time="07:00:00" >
			</activity>
			<leg mode="car">
			</leg>
			<activity type="shelter" x="1.1416768504233208E7" y="2.181874349809644E7" start_time="08:00:00" end_time="14:00:00" >
			</activity>
		</plan>

	</person>

<!-- ====================================================================== -->

	<person id="1025">
		<plan selected="yes">
			<activity type="home" x="1.0762965011854602E7" y="2.1538652017110337E7" end_time="07:00:00" >
			</activity>
			<leg mode="car">
			</leg>
			<activity type="shelter" x="1.1416768504233208E7" y="2.181874349809644E7" start_time="08:00:00" end_time="14:00:00" >
			</activity>
		</plan>

	</person>

<!-- ====================================================================== -->

	<person id="1026">
		<plan selected="yes">
			<activity type="home" x="1.0763485258478492E7" y="2.154234266485236E7" end_time="07:00:00" >
			</activity>
			<leg mode="car">
			</leg>
			<activity type="shelter" x="1.1416768504233208E7" y="2.181874349809644E7" start_time="08:00:00" end_time="14:00:00" >
			</activity>
		</plan>

	</person>

<!-- ====================================================================== -->

	<person id="1027">
		<plan selected="yes">
			<activity type="home" x="1.0763470045642156E7" y="2.1542235892670847E7" end_time="07:00:00" >
			</activity>
			<leg mode="car">
			</leg>
			<activity type="shelter" x="1.1069207272412876E7" y="2.169411007517969E7" start_time="08:00:00" end_time="14:00:00" >
			</activity>
		</plan>

	</person>

<!-- ====================================================================== -->

	<person id="1028">
		<plan selected="yes">
			<activity type="home" x="1.0763403544564702E7" y="2.1541773098066498E7" end_time="07:00:00" >
			</activity>
			<leg mode="car">
			</leg>
			<activity type="shelter" x="1.0802588638292294E7" y="2.2698172264347777E7" start_time="08:00:00" end_time="14:00:00" >
			</activity>
		</plan>

	</person>

<!-- ====================================================================== -->

	<person id="1029">
		<plan selected="yes">
			<activity type="home" x="1.0763365675899727E7" y="2.154149793237619E7" end_time="07:00:00" >
			</activity>
			<leg mode="car">
			</leg>
			<activity type="shelter" x="1.064349036830065E7" y="2.3308259905406326E7" start_time="08:00:00" end_time="14:00:00" >
			</activity>
		</plan>

	</person>

<!-- ====================================================================== -->

	<person id="103">
		<plan selected="yes">
			<activity type="home" x="1.0762941372986367E7" y="2.1538485396523625E7" end_time="07:00:00" >
			</activity>
			<leg mode="car">
			</leg>
			<activity type="shelter" x="1.1416768504233208E7" y="2.181874349809644E7" start_time="08:00:00" end_time="14:00:00" >
			</activity>
		</plan>

	</person>

<!-- ====================================================================== -->

	<person id="1030">
		<plan selected="yes">
			<activity type="home" x="1.0763298864605933E7" y="2.154104947223985E7" end_time="07:00:00" >
			</activity>
			<leg mode="car">
			</leg>
			<activity type="shelter" x="1.1416768504233208E7" y="2.181874349809644E7" start_time="08:00:00" end_time="14:00:00" >
			</activity>
		</plan>

	</person>

<!-- ====================================================================== -->

	<person id="1031">
		<plan selected="yes">
			<activity type="home" x="1.0763210255969457E7" y="2.1540395098673083E7" end_time="07:00:00" >
			</activity>
			<leg mode="car">
			</leg>
			<activity type="shelter" x="1.1416768504233208E7" y="2.181874349809644E7" start_time="08:00:00" end_time="14:00:00" >
			</activity>
		</plan>

	</person>

<!-- ====================================================================== -->

	<person id="1032">
		<plan selected="yes">
			<activity type="home" x="1.0763575821594546E7" y="2.1543015469902344E7" end_time="07:00:00" >
			</activity>
			<leg mode="car">
			</leg>
			<activity type="shelter" x="1.1416768504233208E7" y="2.181874349809644E7" start_time="08:00:00" end_time="14:00:00" >
			</activity>
		</plan>

	</person>

<!-- ====================================================================== -->

	<person id="1033">
		<plan selected="yes">
			<activity type="home" x="1.0763452235773807E7" y="2.154213321087783E7" end_time="07:00:00" >
			</activity>
			<leg mode="car">
			</leg>
			<activity type="shelter" x="1.1038715391616482E7" y="2.1805581152292464E7" start_time="08:00:00" end_time="14:00:00" >
			</activity>
		</plan>

	</person>

<!-- ====================================================================== -->

	<person id="1034">
		<plan selected="yes">
			<activity type="home" x="1.0763614426651288E7" y="2.1543284652721178E7" end_time="07:00:00" >
			</activity>
			<leg mode="car">
			</leg>
			<activity type="shelter" x="1.1416768504233208E7" y="2.181874349809644E7" start_time="08:00:00" end_time="14:00:00" >
			</activity>
		</plan>

	</person>

<!-- ====================================================================== -->

	<person id="1035">
		<plan selected="yes">
			<activity type="home" x="1.076285760045529E7" y="2.1537879530003935E7" end_time="07:00:00" >
			</activity>
			<leg mode="car">
			</leg>
			<activity type="shelter" x="1.1038715391616482E7" y="2.1805581152292464E7" start_time="08:00:00" end_time="14:00:00" >
			</activity>
		</plan>

	</person>

<!-- ====================================================================== -->

	<person id="1036">
		<plan selected="yes">
			<activity type="home" x="1.0763393788540117E7" y="2.154172377533594E7" end_time="07:00:00" >
			</activity>
			<leg mode="car">
			</leg>
			<activity type="shelter" x="1.1416768504233208E7" y="2.181874349809644E7" start_time="08:00:00" end_time="14:00:00" >
			</activity>
		</plan>

	</person>

<!-- ====================================================================== -->

	<person id="1037">
		<plan selected="yes">
			<activity type="home" x="1.0763319735490981E7" y="2.1541196463768933E7" end_time="07:00:00" >
			</activity>
			<leg mode="car">
			</leg>
			<activity type="shelter" x="1.1416768504233208E7" y="2.181874349809644E7" start_time="08:00:00" end_time="14:00:00" >
			</activity>
		</plan>

	</person>

<!-- ====================================================================== -->

	<person id="1038">
		<plan selected="yes">
			<activity type="home" x="1.0763635603207864E7" y="2.1543455091416217E7" end_time="07:00:00" >
			</activity>
			<leg mode="car">
			</leg>
			<activity type="shelter" x="1.064349036830065E7" y="2.3308259905406326E7" start_time="08:00:00" end_time="14:00:00" >
			</activity>
		</plan>

	</person>

<!-- ====================================================================== -->

	<person id="1039">
		<plan selected="yes">
			<activity type="home" x="1.076310344343508E7" y="2.153963374250025E7" end_time="07:00:00" >
			</activity>
			<leg mode="car">
			</leg>
			<activity type="shelter" x="1.1038715391616482E7" y="2.1805581152292464E7" start_time="08:00:00" end_time="14:00:00" >
			</activity>
		</plan>

	</person>

<!-- ====================================================================== -->

	<person id="104">
		<plan selected="yes">
			<activity type="home" x="1.07628736355347E7" y="2.1538002531244718E7" end_time="07:00:00" >
			</activity>
			<leg mode="car">
			</leg>
			<activity type="shelter" x="1.1038715391616482E7" y="2.1805581152292464E7" start_time="08:00:00" end_time="14:00:00" >
			</activity>
		</plan>

	</person>

<!-- ====================================================================== -->

	<person id="1040">
		<plan selected="yes">
			<activity type="home" x="1.0762870728993332E7" y="2.1537959474291194E7" end_time="07:00:00" >
			</activity>
			<leg mode="car">
			</leg>
			<activity type="shelter" x="1.1416768504233208E7" y="2.181874349809644E7" start_time="08:00:00" end_time="14:00:00" >
			</activity>
		</plan>

	</person>

<!-- ====================================================================== -->

	<person id="1041">
		<plan selected="yes">
			<activity type="home" x="1.0763055029582353E7" y="2.153930722825962E7" end_time="07:00:00" >
			</activity>
			<leg mode="car">
			</leg>
			<activity type="shelter" x="1.064349036830065E7" y="2.3308259905406326E7" start_time="08:00:00" end_time="14:00:00" >
			</activity>
		</plan>

	</person>

<!-- ====================================================================== -->

	<person id="1042">
		<plan selected="yes">
			<activity type="home" x="1.0762772413449943E7" y="2.153729650767838E7" end_time="07:00:00" >
			</activity>
			<leg mode="car">
			</leg>
			<activity type="shelter" x="1.1416768504233208E7" y="2.181874349809644E7" start_time="08:00:00" end_time="14:00:00" >
			</activity>
		</plan>

	</person>

<!-- ====================================================================== -->

	<person id="1043">
		<plan selected="yes">
			<activity type="home" x="1.0762784137903407E7" y="2.1537371543410502E7" end_time="07:00:00" >
			</activity>
			<leg mode="car">
			</leg>
			<activity type="shelter" x="1.064349036830065E7" y="2.3308259905406326E7" start_time="08:00:00" end_time="14:00:00" >
			</activity>
		</plan>

	</person>

<!-- ====================================================================== -->

	<person id="1044">
		<plan selected="yes">
			<activity type="home" x="1.0763212191541994E7" y="2.1540416519563716E7" end_time="07:00:00" >
			</activity>
			<leg mode="car">
			</leg>
			<activity type="shelter" x="1.064349036830065E7" y="2.3308259905406326E7" start_time="08:00:00" end_time="14:00:00" >
			</activity>
		</plan>

	</person>

<!-- ====================================================================== -->

	<person id="1045">
		<plan selected="yes">
			<activity type="home" x="1.0763422607344566E7" y="2.1541916860853422E7" end_time="07:00:00" >
			</activity>
			<leg mode="car">
			</leg>
			<activity type="shelter" x="1.1416768504233208E7" y="2.181874349809644E7" start_time="08:00:00" end_time="14:00:00" >
			</activity>
		</plan>

	</person>

<!-- ====================================================================== -->

	<person id="1046">
		<plan selected="yes">
			<activity type="home" x="1.0762725609777415E7" y="2.1536942400089014E7" end_time="07:00:00" >
			</activity>
			<leg mode="car">
			</leg>
			<activity type="shelter" x="1.1416768504233208E7" y="2.181874349809644E7" start_time="08:00:00" end_time="14:00:00" >
			</activity>
		</plan>

	</person>

<!-- ====================================================================== -->

	<person id="1047">
		<plan selected="yes">
			<activity type="home" x="1.0763143057934813E7" y="2.153991744165775E7" end_time="07:00:00" >
			</activity>
			<leg mode="car">
			</leg>
			<activity type="shelter" x="1.1416768504233208E7" y="2.181874349809644E7" start_time="08:00:00" end_time="14:00:00" >
			</activity>
		</plan>

	</person>

<!-- ====================================================================== -->

	<person id="1048">
		<plan selected="yes">
			<activity type="home" x="1.0762697378034836E7" y="2.1536742697106488E7" end_time="07:00:00" >
			</activity>
			<leg mode="car">
			</leg>
			<activity type="shelter" x="1.1416768504233208E7" y="2.181874349809644E7" start_time="08:00:00" end_time="14:00:00" >
			</activity>
		</plan>

	</person>

<!-- ====================================================================== -->

	<person id="1049">
		<plan selected="yes">
			<activity type="home" x="1.0762879162913803E7" y="2.1538020131510675E7" end_time="07:00:00" >
			</activity>
			<leg mode="car">
			</leg>
			<activity type="shelter" x="1.064349036830065E7" y="2.3308259905406326E7" start_time="08:00:00" end_time="14:00:00" >
			</activity>
		</plan>

	</person>

<!-- ====================================================================== -->

	<person id="105">
		<plan selected="yes">
			<activity type="home" x="1.076269412501422E7" y="2.153672894765529E7" end_time="07:00:00" >
			</activity>
			<leg mode="car">
			</leg>
			<activity type="shelter" x="1.064349036830065E7" y="2.3308259905406326E7" start_time="08:00:00" end_time="14:00:00" >
			</activity>
		</plan>

	</person>

<!-- ====================================================================== -->

	<person id="1050">
		<plan selected="yes">
			<activity type="home" x="1.076354837738503E7" y="2.1542801863927986E7" end_time="07:00:00" >
			</activity>
			<leg mode="car">
			</leg>
			<activity type="shelter" x="1.1038715391616482E7" y="2.1805581152292464E7" start_time="08:00:00" end_time="14:00:00" >
			</activity>
		</plan>

	</person>

<!-- ====================================================================== -->

	<person id="1051">
		<plan selected="yes">
			<activity type="home" x="1.0762732202432137E7" y="2.153697943267755E7" end_time="07:00:00" >
			</activity>
			<leg mode="car">
			</leg>
			<activity type="shelter" x="1.064349036830065E7" y="2.3308259905406326E7" start_time="08:00:00" end_time="14:00:00" >
			</activity>
		</plan>

	</person>

<!-- ====================================================================== -->

	<person id="1052">
		<plan selected="yes">
			<activity type="home" x="1.076357726962513E7" y="2.1543002483627222E7" end_time="07:00:00" >
			</activity>
			<leg mode="car">
			</leg>
			<activity type="shelter" x="1.064349036830065E7" y="2.3308259905406326E7" start_time="08:00:00" end_time="14:00:00" >
			</activity>
		</plan>

	</person>

<!-- ====================================================================== -->

	<person id="1053">
		<plan selected="yes">
			<activity type="home" x="1.0763215673167307E7" y="2.15404224822716E7" end_time="07:00:00" >
			</activity>
			<leg mode="car">
			</leg>
			<activity type="shelter" x="1.1069207272412876E7" y="2.169411007517969E7" start_time="08:00:00" end_time="14:00:00" >
			</activity>
		</plan>

	</person>

<!-- ====================================================================== -->

	<person id="1054">
		<plan selected="yes">
			<activity type="home" x="1.0763109241453297E7" y="2.153969571857429E7" end_time="07:00:00" >
			</activity>
			<leg mode="car">
			</leg>
			<activity type="shelter" x="1.064349036830065E7" y="2.3308259905406326E7" start_time="08:00:00" end_time="14:00:00" >
			</activity>
		</plan>

	</person>

<!-- ====================================================================== -->

	<person id="1055">
		<plan selected="yes">
			<activity type="home" x="1.0763325296144856E7" y="2.1541236773891825E7" end_time="07:00:00" >
			</activity>
			<leg mode="car">
			</leg>
			<activity type="shelter" x="1.1416768504233208E7" y="2.181874349809644E7" start_time="08:00:00" end_time="14:00:00" >
			</activity>
		</plan>

	</person>

<!-- ====================================================================== -->

	<person id="1056">
		<plan selected="yes">
			<activity type="home" x="1.076363358261672E7" y="2.1543404082766943E7" end_time="07:00:00" >
			</activity>
			<leg mode="car">
			</leg>
			<activity type="shelter" x="1.1038715391616482E7" y="2.1805581152292464E7" start_time="08:00:00" end_time="14:00:00" >
			</activity>
		</plan>

	</person>

<!-- ====================================================================== -->

	<person id="1057">
		<plan selected="yes">
			<activity type="home" x="1.0763387193511058E7" y="2.1541650892101217E7" end_time="07:00:00" >
			</activity>
			<leg mode="car">
			</leg>
			<activity type="shelter" x="1.1038715391616482E7" y="2.1805581152292464E7" start_time="08:00:00" end_time="14:00:00" >
			</activity>
		</plan>

	</person>

<!-- ====================================================================== -->

	<person id="1058">
		<plan selected="yes">
			<activity type="home" x="1.0762891216968676E7" y="2.15381356709109E7" end_time="07:00:00" >
			</activity>
			<leg mode="car">
			</leg>
			<activity type="shelter" x="1.1069207272412876E7" y="2.169411007517969E7" start_time="08:00:00" end_time="14:00:00" >
			</activity>
		</plan>

	</person>

<!-- ====================================================================== -->

	<person id="1059">
		<plan selected="yes">
			<activity type="home" x="1.0763477152893271E7" y="2.154232531247443E7" end_time="07:00:00" >
			</activity>
			<leg mode="car">
			</leg>
			<activity type="shelter" x="1.064349036830065E7" y="2.3308259905406326E7" start_time="08:00:00" end_time="14:00:00" >
			</activity>
		</plan>

	</person>

<!-- ====================================================================== -->

	<person id="106">
		<plan selected="yes">
			<activity type="home" x="1.0763068878934473E7" y="2.153940016542358E7" end_time="07:00:00" >
			</activity>
			<leg mode="car">
			</leg>
			<activity type="shelter" x="1.1416768504233208E7" y="2.181874349809644E7" start_time="08:00:00" end_time="14:00:00" >
			</activity>
		</plan>

	</person>

<!-- ====================================================================== -->
