<?xml version="1.0" encoding="utf-8"?>
<!DOCTYPE population SYSTEM "http://www.matsim.org/files/dtd/population_v6.dtd">

<population>



<!-- ====================================================================== -->

	<person id="0">
		<plan selected="yes">
			<activity type="home" x="-1.518697951837251E7" y="2.392892891520341E12" end_time="07:00:00" >
			</activity>
			<leg mode="car">
			</leg>
			<activity type="shelter" x="1.1038715391616482E7" y="2.1805581152292464E7" start_time="08:00:00" end_time="14:00:00" >
			</activity>
		</plan>

	</person>

<!-- ====================================================================== -->

	<person id="1">
		<plan selected="yes">
			<activity type="home" x="-7230872.424872689" y="2.392909380336618E12" end_time="07:00:00" >
			</activity>
			<leg mode="car">
			</leg>
			<activity type="shelter" x="1.064349036830065E7" y="2.3308259905406326E7" start_time="08:00:00" end_time="14:00:00" >
			</activity>
		</plan>

	</person>

<!-- ====================================================================== -->

	<person id="10">
		<plan selected="yes">
			<activity type="home" x="500505.59567410836" y="2.3928829355468086E12" end_time="07:00:00" >
			</activity>
			<leg mode="car">
			</leg>
			<activity type="shelter" x="1.1038715391616482E7" y="2.1805581152292464E7" start_time="08:00:00" end_time="14:00:00" >
			</activity>
		</plan>

	</person>

<!-- ====================================================================== -->

	<person id="100">
		<plan selected="yes">
			<activity type="home" x="-2694318.914474262" y="2.393022279687548E12" end_time="07:00:00" >
			</activity>
			<leg mode="car">
			</leg>
			<activity type="shelter" x="1.1069207272412876E7" y="2.169411007517969E7" start_time="08:00:00" end_time="14:00:00" >
			</activity>
		</plan>

	</person>

<!-- ====================================================================== -->

	<person id="1000">
		<plan selected="yes">
			<activity type="home" x="-1028138.6421533797" y="2.3928830544101777E12" end_time="07:00:00" >
			</activity>
			<leg mode="car">
			</leg>
			<activity type="shelter" x="1.1038715391616482E7" y="2.1805581152292464E7" start_time="08:00:00" end_time="14:00:00" >
			</activity>
		</plan>

	</person>

<!-- ====================================================================== -->

	<person id="1001">
		<plan selected="yes">
			<activity type="home" x="-1.294469608193511E8" y="2.3929572707008423E12" end_time="07:00:00" >
			</activity>
			<leg mode="car">
			</leg>
			<activity type="shelter" x="1.064349036830065E7" y="2.3308259905406326E7" start_time="08:00:00" end_time="14:00:00" >
			</activity>
		</plan>

	</person>

<!-- ====================================================================== -->

	<person id="1002">
		<plan selected="yes">
			<activity type="home" x="1801879.2883800096" y="2.392704528950835E12" end_time="07:00:00" >
			</activity>
			<leg mode="car">
			</leg>
			<activity type="shelter" x="1.1038715391616482E7" y="2.1805581152292464E7" start_time="08:00:00" end_time="14:00:00" >
			</activity>
		</plan>

	</person>

<!-- ====================================================================== -->

	<person id="1003">
		<plan selected="yes">
			<activity type="home" x="-950494.0649492845" y="2.3932016768057695E12" end_time="07:00:00" >
			</activity>
			<leg mode="car">
			</leg>
			<activity type="shelter" x="1.1038715391616482E7" y="2.1805581152292464E7" start_time="08:00:00" end_time="14:00:00" >
			</activity>
		</plan>

	</person>

<!-- ====================================================================== -->

	<person id="1004">
		<plan selected="yes">
			<activity type="home" x="1.1055059496182717E7" y="2.3934225648477505E12" end_time="07:00:00" >
			</activity>
			<leg mode="car">
			</leg>
			<activity type="shelter" x="1.1069207272412876E7" y="2.169411007517969E7" start_time="08:00:00" end_time="14:00:00" >
			</activity>
		</plan>

	</person>

<!-- ====================================================================== -->

	<person id="1005">
		<plan selected="yes">
			<activity type="home" x="1859542.7618874703" y="2.3929393431201714E12" end_time="07:00:00" >
			</activity>
			<leg mode="car">
			</leg>
			<activity type="shelter" x="1.1038715391616482E7" y="2.1805581152292464E7" start_time="08:00:00" end_time="14:00:00" >
			</activity>
		</plan>

	</person>

<!-- ====================================================================== -->

	<person id="1006">
		<plan selected="yes">
			<activity type="home" x="621898.6502404739" y="2.3926746583489272E12" end_time="07:00:00" >
			</activity>
			<leg mode="car">
			</leg>
			<activity type="shelter" x="1.1038715391616482E7" y="2.1805581152292464E7" start_time="08:00:00" end_time="14:00:00" >
			</activity>
		</plan>

	</person>

<!-- ====================================================================== -->

	<person id="1007">
		<plan selected="yes">
			<activity type="home" x="-171014.96706183744" y="2.3929512335356577E12" end_time="07:00:00" >
			</activity>
			<leg mode="car">
			</leg>
			<activity type="shelter" x="1.1038715391616482E7" y="2.1805581152292464E7" start_time="08:00:00" end_time="14:00:00" >
			</activity>
		</plan>

	</person>

<!-- ====================================================================== -->

	<person id="1008">
		<plan selected="yes">
			<activity type="home" x="1010287.0069544564" y="2.392677491010525E12" end_time="07:00:00" >
			</activity>
			<leg mode="car">
			</leg>
			<activity type="shelter" x="1.1038715391616482E7" y="2.1805581152292464E7" start_time="08:00:00" end_time="14:00:00" >
			</activity>
		</plan>

	</person>

<!-- ====================================================================== -->

	<person id="1009">
		<plan selected="yes">
			<activity type="home" x="2524048.4183866438" y="2.3932196335086704E12" end_time="07:00:00" >
			</activity>
			<leg mode="car">
			</leg>
			<activity type="shelter" x="1.064349036830065E7" y="2.3308259905406326E7" start_time="08:00:00" end_time="14:00:00" >
			</activity>
		</plan>

	</person>

<!-- ====================================================================== -->

	<person id="101">
		<plan selected="yes">
			<activity type="home" x="-228370.27398508636" y="2.3931424073755137E12" end_time="07:00:00" >
			</activity>
			<leg mode="car">
			</leg>
			<activity type="shelter" x="1.064349036830065E7" y="2.3308259905406326E7" start_time="08:00:00" end_time="14:00:00" >
			</activity>
		</plan>

	</person>

<!-- ====================================================================== -->

	<person id="1010">
		<plan selected="yes">
			<activity type="home" x="-6214248.384871745" y="2.3926319098348135E12" end_time="07:00:00" >
			</activity>
			<leg mode="car">
			</leg>
			<activity type="shelter" x="1.1416768504233208E7" y="2.181874349809644E7" start_time="08:00:00" end_time="14:00:00" >
			</activity>
		</plan>

	</person>

<!-- ====================================================================== -->

	<person id="1011">
		<plan selected="yes">
			<activity type="home" x="-370153.49327182793" y="2.3929668206923677E12" end_time="07:00:00" >
			</activity>
			<leg mode="car">
			</leg>
			<activity type="shelter" x="1.1038715391616482E7" y="2.1805581152292464E7" start_time="08:00:00" end_time="14:00:00" >
			</activity>
		</plan>

	</person>

<!-- ====================================================================== -->

	<person id="1012">
		<plan selected="yes">
			<activity type="home" x="-353363.55054707313" y="2.3930035060943975E12" end_time="07:00:00" >
			</activity>
			<leg mode="car">
			</leg>
			<activity type="shelter" x="1.064349036830065E7" y="2.3308259905406326E7" start_time="08:00:00" end_time="14:00:00" >
			</activity>
		</plan>

	</person>

<!-- ====================================================================== -->

	<person id="1013">
		<plan selected="yes">
			<activity type="home" x="-3533253.5821485836" y="2.392580716159789E12" end_time="07:00:00" >
			</activity>
			<leg mode="car">
			</leg>
			<activity type="shelter" x="1.1069207272412876E7" y="2.169411007517969E7" start_time="08:00:00" end_time="14:00:00" >
			</activity>
		</plan>

	</person>

<!-- ====================================================================== -->

	<person id="1014">
		<plan selected="yes">
			<activity type="home" x="1.542933017620972E7" y="2.392889803459353E12" end_time="07:00:00" >
			</activity>
			<leg mode="car">
			</leg>
			<activity type="shelter" x="1.1416768504233208E7" y="2.181874349809644E7" start_time="08:00:00" end_time="14:00:00" >
			</activity>
		</plan>

	</person>

<!-- ====================================================================== -->

	<person id="1015">
		<plan selected="yes">
			<activity type="home" x="-1695059.7828899454" y="2.3929760254911064E12" end_time="07:00:00" >
			</activity>
			<leg mode="car">
			</leg>
			<activity type="shelter" x="1.1416768504233208E7" y="2.181874349809644E7" start_time="08:00:00" end_time="14:00:00" >
			</activity>
		</plan>

	</person>

<!-- ====================================================================== -->

	<person id="1016">
		<plan selected="yes">
			<activity type="home" x="-2482591.678987562" y="2.392724285445364E12" end_time="07:00:00" >
			</activity>
			<leg mode="car">
			</leg>
			<activity type="shelter" x="1.1416768504233208E7" y="2.181874349809644E7" start_time="08:00:00" end_time="14:00:00" >
			</activity>
		</plan>

	</person>

<!-- ====================================================================== -->

	<person id="1017">
		<plan selected="yes">
			<activity type="home" x="1821102.3717408462" y="2.393171892151203E12" end_time="07:00:00" >
			</activity>
			<leg mode="car">
			</leg>
			<activity type="shelter" x="1.1416768504233208E7" y="2.181874349809644E7" start_time="08:00:00" end_time="14:00:00" >
			</activity>
		</plan>

	</person>

<!-- ====================================================================== -->

	<person id="1018">
		<plan selected="yes">
			<activity type="home" x="-3783745.8173923893" y="2.392528774630853E12" end_time="07:00:00" >
			</activity>
			<leg mode="car">
			</leg>
			<activity type="shelter" x="1.1069207272412876E7" y="2.169411007517969E7" start_time="08:00:00" end_time="14:00:00" >
			</activity>
		</plan>

	</person>

<!-- ====================================================================== -->

	<person id="1019">
		<plan selected="yes">
			<activity type="home" x="2419574.3632382853" y="2.392781901585831E12" end_time="07:00:00" >
			</activity>
			<leg mode="car">
			</leg>
			<activity type="shelter" x="1.064349036830065E7" y="2.3308259905406326E7" start_time="08:00:00" end_time="14:00:00" >
			</activity>
		</plan>

	</person>

<!-- ====================================================================== -->

	<person id="102">
		<plan selected="yes">
			<activity type="home" x="8231976.9777897475" y="2.3925505166344497E12" end_time="07:00:00" >
			</activity>
			<leg mode="car">
			</leg>
			<activity type="shelter" x="1.1038715391616482E7" y="2.1805581152292464E7" start_time="08:00:00" end_time="14:00:00" >
			</activity>
		</plan>

	</person>

<!-- ====================================================================== -->

	<person id="1020">
		<plan selected="yes">
			<activity type="home" x="1446995.0263850468" y="2.3927837738796562E12" end_time="07:00:00" >
			</activity>
			<leg mode="car">
			</leg>
			<activity type="shelter" x="1.064349036830065E7" y="2.3308259905406326E7" start_time="08:00:00" end_time="14:00:00" >
			</activity>
		</plan>

	</person>

<!-- ====================================================================== -->

	<person id="1021">
		<plan selected="yes">
			<activity type="home" x="568036.7034867374" y="2.3929609441758115E12" end_time="07:00:00" >
			</activity>
			<leg mode="car">
			</leg>
			<activity type="shelter" x="1.1416768504233208E7" y="2.181874349809644E7" start_time="08:00:00" end_time="14:00:00" >
			</activity>
		</plan>

	</person>

<!-- ====================================================================== -->

	<person id="1022">
		<plan selected="yes">
			<activity type="home" x="1224656.6060905047" y="2.3925443242624775E12" end_time="07:00:00" >
			</activity>
			<leg mode="car">
			</leg>
			<activity type="shelter" x="1.1416768504233208E7" y="2.181874349809644E7" start_time="08:00:00" end_time="14:00:00" >
			</activity>
		</plan>

	</person>

<!-- ====================================================================== -->

	<person id="1023">
		<plan selected="yes">
			<activity type="home" x="4096783.181784561" y="2.392929927425549E12" end_time="07:00:00" >
			</activity>
			<leg mode="car">
			</leg>
			<activity type="shelter" x="1.1038715391616482E7" y="2.1805581152292464E7" start_time="08:00:00" end_time="14:00:00" >
			</activity>
		</plan>

	</person>

<!-- ====================================================================== -->

	<person id="1024">
		<plan selected="yes">
			<activity type="home" x="1.2958898933595428E7" y="2.3931807363073677E12" end_time="07:00:00" >
			</activity>
			<leg mode="car">
			</leg>
			<activity type="shelter" x="1.1038715391616482E7" y="2.1805581152292464E7" start_time="08:00:00" end_time="14:00:00" >
			</activity>
		</plan>

	</person>

<!-- ====================================================================== -->

	<person id="1025">
		<plan selected="yes">
			<activity type="home" x="-1232449.6449526208" y="2.392828504431449E12" end_time="07:00:00" >
			</activity>
			<leg mode="car">
			</leg>
			<activity type="shelter" x="1.1416768504233208E7" y="2.181874349809644E7" start_time="08:00:00" end_time="14:00:00" >
			</activity>
		</plan>

	</person>

<!-- ====================================================================== -->

	<person id="1026">
		<plan selected="yes">
			<activity type="home" x="2679308.2245697523" y="2.393162655641834E12" end_time="07:00:00" >
			</activity>
			<leg mode="car">
			</leg>
			<activity type="shelter" x="1.1069207272412876E7" y="2.169411007517969E7" start_time="08:00:00" end_time="14:00:00" >
			</activity>
		</plan>

	</person>

<!-- ====================================================================== -->

	<person id="1027">
		<plan selected="yes">
			<activity type="home" x="2335835.452829277" y="2.3927430058336846E12" end_time="07:00:00" >
			</activity>
			<leg mode="car">
			</leg>
			<activity type="shelter" x="1.1416768504233208E7" y="2.181874349809644E7" start_time="08:00:00" end_time="14:00:00" >
			</activity>
		</plan>

	</person>

<!-- ====================================================================== -->

	<person id="1028">
		<plan selected="yes">
			<activity type="home" x="-249378.37157386215" y="2.3924825447670835E12" end_time="07:00:00" >
			</activity>
			<leg mode="car">
			</leg>
			<activity type="shelter" x="1.1416768504233208E7" y="2.181874349809644E7" start_time="08:00:00" end_time="14:00:00" >
			</activity>
		</plan>

	</person>

<!-- ====================================================================== -->

	<person id="1029">
		<plan selected="yes">
			<activity type="home" x="-1.3475995163641218E7" y="2.3931190570718076E12" end_time="07:00:00" >
			</activity>
			<leg mode="car">
			</leg>
			<activity type="shelter" x="1.1038715391616482E7" y="2.1805581152292464E7" start_time="08:00:00" end_time="14:00:00" >
			</activity>
		</plan>

	</person>

<!-- ====================================================================== -->

	<person id="103">
		<plan selected="yes">
			<activity type="home" x="3.016526577087511E7" y="2.392459222058667E12" end_time="07:00:00" >
			</activity>
			<leg mode="car">
			</leg>
			<activity type="shelter" x="1.1416768504233208E7" y="2.181874349809644E7" start_time="08:00:00" end_time="14:00:00" >
			</activity>
		</plan>

	</person>

<!-- ====================================================================== -->

	<person id="1030">
		<plan selected="yes">
			<activity type="home" x="-1102986.7032345969" y="2.392462529875064E12" end_time="07:00:00" >
			</activity>
			<leg mode="car">
			</leg>
			<activity type="shelter" x="1.1038715391616482E7" y="2.1805581152292464E7" start_time="08:00:00" end_time="14:00:00" >
			</activity>
		</plan>

	</person>

<!-- ====================================================================== -->

	<person id="1031">
		<plan selected="yes">
			<activity type="home" x="600640.7858169869" y="2.39294267922607E12" end_time="07:00:00" >
			</activity>
			<leg mode="car">
			</leg>
			<activity type="shelter" x="1.1038715391616482E7" y="2.1805581152292464E7" start_time="08:00:00" end_time="14:00:00" >
			</activity>
		</plan>

	</person>

<!-- ====================================================================== -->

	<person id="1032">
		<plan selected="yes">
			<activity type="home" x="5459889.247477533" y="2.3929905359768228E12" end_time="07:00:00" >
			</activity>
			<leg mode="car">
			</leg>
			<activity type="shelter" x="1.064349036830065E7" y="2.3308259905406326E7" start_time="08:00:00" end_time="14:00:00" >
			</activity>
		</plan>

	</person>

<!-- ====================================================================== -->

	<person id="1033">
		<plan selected="yes">
			<activity type="home" x="-8033073.324884083" y="2.392741007511866E12" end_time="07:00:00" >
			</activity>
			<leg mode="car">
			</leg>
			<activity type="shelter" x="1.1038715391616482E7" y="2.1805581152292464E7" start_time="08:00:00" end_time="14:00:00" >
			</activity>
		</plan>

	</person>

<!-- ====================================================================== -->

	<person id="1034">
		<plan selected="yes">
			<activity type="home" x="2434667.0831191856" y="2.392501424357131E12" end_time="07:00:00" >
			</activity>
			<leg mode="car">
			</leg>
			<activity type="shelter" x="1.1416768504233208E7" y="2.181874349809644E7" start_time="08:00:00" end_time="14:00:00" >
			</activity>
		</plan>

	</person>

<!-- ====================================================================== -->

	<person id="1035">
		<plan selected="yes">
			<activity type="home" x="3223797.547575761" y="2.392882868371215E12" end_time="07:00:00" >
			</activity>
			<leg mode="car">
			</leg>
			<activity type="shelter" x="1.1416768504233208E7" y="2.181874349809644E7" start_time="08:00:00" end_time="14:00:00" >
			</activity>
		</plan>

	</person>

<!-- ====================================================================== -->

	<person id="1036">
		<plan selected="yes">
			<activity type="home" x="2.054693385816737E7" y="2.393039981680276E12" end_time="07:00:00" >
			</activity>
			<leg mode="car">
			</leg>
			<activity type="shelter" x="1.1038715391616482E7" y="2.1805581152292464E7" start_time="08:00:00" end_time="14:00:00" >
			</activity>
		</plan>

	</person>

<!-- ====================================================================== -->

	<person id="1037">
		<plan selected="yes">
			<activity type="home" x="-8640585.595406909" y="2.3931899167665396E12" end_time="07:00:00" >
			</activity>
			<leg mode="car">
			</leg>
			<activity type="shelter" x="1.1038715391616482E7" y="2.1805581152292464E7" start_time="08:00:00" end_time="14:00:00" >
			</activity>
		</plan>

	</person>

<!-- ====================================================================== -->

	<person id="1038">
		<plan selected="yes">
			<activity type="home" x="-3.773946563548828E7" y="2.393159322411496E12" end_time="07:00:00" >
			</activity>
			<leg mode="car">
			</leg>
			<activity type="shelter" x="1.1038715391616482E7" y="2.1805581152292464E7" start_time="08:00:00" end_time="14:00:00" >
			</activity>
		</plan>

	</person>

<!-- ====================================================================== -->

	<person id="1039">
		<plan selected="yes">
			<activity type="home" x="2368500.2483176664" y="2.3929252896887812E12" end_time="07:00:00" >
			</activity>
			<leg mode="car">
			</leg>
			<activity type="shelter" x="1.1416768504233208E7" y="2.181874349809644E7" start_time="08:00:00" end_time="14:00:00" >
			</activity>
		</plan>

	</person>

<!-- ====================================================================== -->

	<person id="104">
		<plan selected="yes">
			<activity type="home" x="814777.5557010748" y="2.392502538037951E12" end_time="07:00:00" >
			</activity>
			<leg mode="car">
			</leg>
			<activity type="shelter" x="1.1416768504233208E7" y="2.181874349809644E7" start_time="08:00:00" end_time="14:00:00" >
			</activity>
		</plan>

	</person>

<!-- ====================================================================== -->

	<person id="1040">
		<plan selected="yes">
			<activity type="home" x="5.664317104399967E7" y="2.3925898857855557E12" end_time="07:00:00" >
			</activity>
			<leg mode="car">
			</leg>
			<activity type="shelter" x="1.1038715391616482E7" y="2.1805581152292464E7" start_time="08:00:00" end_time="14:00:00" >
			</activity>
		</plan>

	</person>

<!-- ====================================================================== -->

	<person id="1041">
		<plan selected="yes">
			<activity type="home" x="-8335005.89697445" y="2.39307172047429E12" end_time="07:00:00" >
			</activity>
			<leg mode="car">
			</leg>
			<activity type="shelter" x="1.1038715391616482E7" y="2.1805581152292464E7" start_time="08:00:00" end_time="14:00:00" >
			</activity>
		</plan>

	</person>

<!-- ====================================================================== -->

	<person id="1042">
		<plan selected="yes">
			<activity type="home" x="5.272949903349149E7" y="2.3929440534543955E12" end_time="07:00:00" >
			</activity>
			<leg mode="car">
			</leg>
			<activity type="shelter" x="1.064349036830065E7" y="2.3308259905406326E7" start_time="08:00:00" end_time="14:00:00" >
			</activity>
		</plan>

	</person>

<!-- ====================================================================== -->

	<person id="1043">
		<plan selected="yes">
			<activity type="home" x="4.915365757003474E7" y="2.392967085667792E12" end_time="07:00:00" >
			</activity>
			<leg mode="car">
			</leg>
			<activity type="shelter" x="1.064349036830065E7" y="2.3308259905406326E7" start_time="08:00:00" end_time="14:00:00" >
			</activity>
		</plan>

	</person>

<!-- ====================================================================== -->

	<person id="1044">
		<plan selected="yes">
			<activity type="home" x="6639264.096954424" y="2.392460409714752E12" end_time="07:00:00" >
			</activity>
			<leg mode="car">
			</leg>
			<activity type="shelter" x="1.1038715391616482E7" y="2.1805581152292464E7" start_time="08:00:00" end_time="14:00:00" >
			</activity>
		</plan>

	</person>

<!-- ====================================================================== -->

	<person id="1045">
		<plan selected="yes">
			<activity type="home" x="2.484974342333476E7" y="2.392890647272004E12" end_time="07:00:00" >
			</activity>
			<leg mode="car">
			</leg>
			<activity type="shelter" x="1.1069207272412876E7" y="2.169411007517969E7" start_time="08:00:00" end_time="14:00:00" >
			</activity>
		</plan>

	</person>

<!-- ====================================================================== -->

	<person id="1046">
		<plan selected="yes">
			<activity type="home" x="-1.1885100098735705E7" y="2.392729700371538E12" end_time="07:00:00" >
			</activity>
			<leg mode="car">
			</leg>
			<activity type="shelter" x="1.1416768504233208E7" y="2.181874349809644E7" start_time="08:00:00" end_time="14:00:00" >
			</activity>
		</plan>

	</person>

<!-- ====================================================================== -->

	<person id="1047">
		<plan selected="yes">
			<activity type="home" x="1.705699285415679E7" y="2.3931690890163926E12" end_time="07:00:00" >
			</activity>
			<leg mode="car">
			</leg>
			<activity type="shelter" x="1.064349036830065E7" y="2.3308259905406326E7" start_time="08:00:00" end_time="14:00:00" >
			</activity>
		</plan>

	</person>

<!-- ====================================================================== -->

	<person id="1048">
		<plan selected="yes">
			<activity type="home" x="-2.799724195963799E8" y="2.392518262187103E12" end_time="07:00:00" >
			</activity>
			<leg mode="car">
			</leg>
			<activity type="shelter" x="1.0802588638292294E7" y="2.2698172264347777E7" start_time="08:00:00" end_time="14:00:00" >
			</activity>
		</plan>

	</person>

<!-- ====================================================================== -->

	<person id="1049">
		<plan selected="yes">
			<activity type="home" x="261341.1546131412" y="2.392702676073003E12" end_time="07:00:00" >
			</activity>
			<leg mode="car">
			</leg>
			<activity type="shelter" x="1.1069207272412876E7" y="2.169411007517969E7" start_time="08:00:00" end_time="14:00:00" >
			</activity>
		</plan>

	</person>

<!-- ====================================================================== -->

	<person id="105">
		<plan selected="yes">
			<activity type="home" x="1.5688925999504678E7" y="2.3928310150915034E12" end_time="07:00:00" >
			</activity>
			<leg mode="car">
			</leg>
			<activity type="shelter" x="1.1038715391616482E7" y="2.1805581152292464E7" start_time="08:00:00" end_time="14:00:00" >
			</activity>
		</plan>

	</person>

<!-- ====================================================================== -->

	<person id="1050">
		<plan selected="yes">
			<activity type="home" x="664317.2131696427" y="2.3925643296695347E12" end_time="07:00:00" >
			</activity>
			<leg mode="car">
			</leg>
			<activity type="shelter" x="1.1038715391616482E7" y="2.1805581152292464E7" start_time="08:00:00" end_time="14:00:00" >
			</activity>
		</plan>

	</person>

<!-- ====================================================================== -->

	<person id="1051">
		<plan selected="yes">
			<activity type="home" x="-1356884.0814248975" y="2.3925038236057266E12" end_time="07:00:00" >
			</activity>
			<leg mode="car">
			</leg>
			<activity type="shelter" x="1.1416768504233208E7" y="2.181874349809644E7" start_time="08:00:00" end_time="14:00:00" >
			</activity>
		</plan>

	</person>

<!-- ====================================================================== -->

	<person id="1052">
		<plan selected="yes">
			<activity type="home" x="-2863787.298287906" y="2.3926952293599644E12" end_time="07:00:00" >
			</activity>
			<leg mode="car">
			</leg>
			<activity type="shelter" x="1.1069207272412876E7" y="2.169411007517969E7" start_time="08:00:00" end_time="14:00:00" >
			</activity>
		</plan>

	</person>

<!-- ====================================================================== -->

	<person id="1053">
		<plan selected="yes">
			<activity type="home" x="-4.717959858933428E7" y="2.3930778473553594E12" end_time="07:00:00" >
			</activity>
			<leg mode="car">
			</leg>
			<activity type="shelter" x="1.1416768504233208E7" y="2.181874349809644E7" start_time="08:00:00" end_time="14:00:00" >
			</activity>
		</plan>

	</person>

<!-- ====================================================================== -->

	<person id="1054">
		<plan selected="yes">
			<activity type="home" x="-3867390.4048402132" y="2.39316604701093E12" end_time="07:00:00" >
			</activity>
			<leg mode="car">
			</leg>
			<activity type="shelter" x="1.0802588638292294E7" y="2.2698172264347777E7" start_time="08:00:00" end_time="14:00:00" >
			</activity>
		</plan>

	</person>

<!-- ====================================================================== -->

	<person id="1055">
		<plan selected="yes">
			<activity type="home" x="-9474147.981619943" y="2.393013865799029E12" end_time="07:00:00" >
			</activity>
			<leg mode="car">
			</leg>
			<activity type="shelter" x="1.1038715391616482E7" y="2.1805581152292464E7" start_time="08:00:00" end_time="14:00:00" >
			</activity>
		</plan>

	</person>

<!-- ====================================================================== -->

	<person id="1056">
		<plan selected="yes">
			<activity type="home" x="2312541.797374006" y="2.393162532517561E12" end_time="07:00:00" >
			</activity>
			<leg mode="car">
			</leg>
			<activity type="shelter" x="1.1069207272412876E7" y="2.169411007517969E7" start_time="08:00:00" end_time="14:00:00" >
			</activity>
		</plan>

	</person>

<!-- ====================================================================== -->

	<person id="1057">
		<plan selected="yes">
			<activity type="home" x="704557.0201543638" y="2.3926742733331167E12" end_time="07:00:00" >
			</activity>
			<leg mode="car">
			</leg>
			<activity type="shelter" x="1.1038715391616482E7" y="2.1805581152292464E7" start_time="08:00:00" end_time="14:00:00" >
			</activity>
		</plan>

	</person>

<!-- ====================================================================== -->

	<person id="1058">
		<plan selected="yes">
			<activity type="home" x="-2052120.4641716797" y="2.3924631407322363E12" end_time="07:00:00" >
			</activity>
			<leg mode="car">
			</leg>
			<activity type="shelter" x="1.1416768504233208E7" y="2.181874349809644E7" start_time="08:00:00" end_time="14:00:00" >
			</activity>
		</plan>

	</person>

<!-- ====================================================================== -->

	<person id="1059">
		<plan selected="yes">
			<activity type="home" x="4.205604741595242E7" y="2.3923456231112656E12" end_time="07:00:00" >
			</activity>
			<leg mode="car">
			</leg>
			<activity type="shelter" x="1.064349036830065E7" y="2.3308259905406326E7" start_time="08:00:00" end_time="14:00:00" >
			</activity>
		</plan>

	</person>

<!-- ====================================================================== -->

	<person id="106">
		<plan selected="yes">
			<activity type="home" x="2809155.561736032" y="2.392799928114646E12" end_time="07:00:00" >
			</activity>
			<leg mode="car">
			</leg>
			<activity type="shelter" x="1.0802588638292294E7" y="2.2698172264347777E7" start_time="08:00:00" end_time="14:00:00" >
			</activity>
		</plan>

	</person>

<!-- ====================================================================== -->

	<person id="1060">