<?xml version="1.0" encoding="utf-8"?>
<!DOCTYPE population SYSTEM "http://www.matsim.org/files/dtd/population_v6.dtd">

<population>



<!-- ====================================================================== -->

	<person id="0">
		<plan selected="yes">
			<activity type="home" x="-7299070.303149245" y="-1423599.2121576453" end_time="07:00:00" >
			</activity>
			<leg mode="car">
			</leg>
			<activity type="shelter" x="1.1416768504233208E7" y="2.181874349809644E7" start_time="08:00:00" end_time="14:00:00" >
			</activity>
		</plan>

	</person>

<!-- ====================================================================== -->

	<person id="1">
		<plan selected="yes">
			<activity type="home" x="-7299050.4733067695" y="-1423632.9781203712" end_time="07:00:00" >
			</activity>
			<leg mode="car">
			</leg>
			<activity type="shelter" x="1.1416768504233208E7" y="2.181874349809644E7" start_time="08:00:00" end_time="14:00:00" >
			</activity>
		</plan>

	</person>

<!-- ====================================================================== -->

	<person id="10">
		<plan selected="yes">
			<activity type="home" x="-7299123.597694083" y="-1423504.2245422013" end_time="07:00:00" >
			</activity>
			<leg mode="car">
			</leg>
			<activity type="shelter" x="1.1038715391616482E7" y="2.1805581152292464E7" start_time="08:00:00" end_time="14:00:00" >
			</activity>
		</plan>

	</person>

<!-- ====================================================================== -->

	<person id="100">
		<plan selected="yes">
			<activity type="home" x="-7299120.416273281" y="-1423512.9091176644" end_time="07:00:00" >
			</activity>
			<leg mode="car">
			</leg>
			<activity type="shelter" x="1.1038715391616482E7" y="2.1805581152292464E7" start_time="08:00:00" end_time="14:00:00" >
			</activity>
		</plan>

	</person>

<!-- ====================================================================== -->

	<person id="1000">
		<plan selected="yes">
			<activity type="home" x="-7299131.451137797" y="-1423497.1902785162" end_time="07:00:00" >
			</activity>
			<leg mode="car">
			</leg>
			<activity type="shelter" x="1.1416768504233208E7" y="2.181874349809644E7" start_time="08:00:00" end_time="14:00:00" >
			</activity>
		</plan>

	</person>

<!-- ====================================================================== -->

	<person id="1001">
		<plan selected="yes">
			<activity type="home" x="-7299106.647542575" y="-1423537.9517397336" end_time="07:00:00" >
			</activity>
			<leg mode="car">
			</leg>
			<activity type="shelter" x="1.1416768504233208E7" y="2.181874349809644E7" start_time="08:00:00" end_time="14:00:00" >
			</activity>
		</plan>

	</person>

<!-- ====================================================================== -->

	<person id="1002">
		<plan selected="yes">
			<activity type="home" x="-7299056.902712654" y="-1423620.267087887" end_time="07:00:00" >
			</activity>
			<leg mode="car">
			</leg>
			<activity type="shelter" x="1.1038715391616482E7" y="2.1805581152292464E7" start_time="08:00:00" end_time="14:00:00" >
			</activity>
		</plan>

	</person>

<!-- ====================================================================== -->

	<person id="1003">
		<plan selected="yes">
			<activity type="home" x="-7299045.811239245" y="-1423634.5366991556" end_time="07:00:00" >
			</activity>
			<leg mode="car">
			</leg>
			<activity type="shelter" x="1.1416768504233208E7" y="2.181874349809644E7" start_time="08:00:00" end_time="14:00:00" >
			</activity>
		</plan>

	</person>

<!-- ====================================================================== -->

	<person id="1004">
		<plan selected="yes">
			<activity type="home" x="-7299050.681640816" y="-1423629.0306828257" end_time="07:00:00" >
			</activity>
			<leg mode="car">
			</leg>
			<activity type="shelter" x="1.1416768504233208E7" y="2.181874349809644E7" start_time="08:00:00" end_time="14:00:00" >
			</activity>
		</plan>

	</person>

<!-- ====================================================================== -->

	<person id="1005">
		<plan selected="yes">
			<activity type="home" x="-7299126.7591984635" y="-1423509.4108777198" end_time="07:00:00" >
			</activity>
			<leg mode="car">
			</leg>
			<activity type="shelter" x="1.1069207272412876E7" y="2.169411007517969E7" start_time="08:00:00" end_time="14:00:00" >
			</activity>
		</plan>

	</person>

<!-- ====================================================================== -->

	<person id="1006">
		<plan selected="yes">
			<activity type="home" x="-7299111.404822256" y="-1423526.1652909825" end_time="07:00:00" >
			</activity>
			<leg mode="car">
			</leg>
			<activity type="shelter" x="1.1038715391616482E7" y="2.1805581152292464E7" start_time="08:00:00" end_time="14:00:00" >
			</activity>
		</plan>

	</person>

<!-- ====================================================================== -->

	<person id="1007">
		<plan selected="yes">
			<activity type="home" x="-7299097.7128473995" y="-1423552.489317764" end_time="07:00:00" >
			</activity>
			<leg mode="car">
			</leg>
			<activity type="shelter" x="1.1038715391616482E7" y="2.1805581152292464E7" start_time="08:00:00" end_time="14:00:00" >
			</activity>
		</plan>

	</person>

<!-- ====================================================================== -->

	<person id="1008">
		<plan selected="yes">
			<activity type="home" x="-7299082.238140448" y="-1423573.3009795737" end_time="07:00:00" >
			</activity>
			<leg mode="car">
			</leg>
			<activity type="shelter" x="1.1038715391616482E7" y="2.1805581152292464E7" start_time="08:00:00" end_time="14:00:00" >
			</activity>
		</plan>

	</person>

<!-- ====================================================================== -->

	<person id="1009">
		<plan selected="yes">
			<activity type="home" x="-7299130.198918882" y="-1423496.377213261" end_time="07:00:00" >
			</activity>
			<leg mode="car">
			</leg>
			<activity type="shelter" x="1.1069207272412876E7" y="2.169411007517969E7" start_time="08:00:00" end_time="14:00:00" >
			</activity>
		</plan>

	</person>

<!-- ====================================================================== -->

	<person id="101">
		<plan selected="yes">
			<activity type="home" x="-7299047.40906015" y="-1423634.1098719356" end_time="07:00:00" >
			</activity>
			<leg mode="car">
			</leg>
			<activity type="shelter" x="1.064349036830065E7" y="2.3308259905406326E7" start_time="08:00:00" end_time="14:00:00" >
			</activity>
		</plan>

	</person>

<!-- ====================================================================== -->

	<person id="1010">
		<plan selected="yes">
			<activity type="home" x="-7299095.032968435" y="-1423550.77948784" end_time="07:00:00" >
			</activity>
			<leg mode="car">
			</leg>
			<activity type="shelter" x="1.064349036830065E7" y="2.3308259905406326E7" start_time="08:00:00" end_time="14:00:00" >
			</activity>
		</plan>

	</person>

<!-- ====================================================================== -->

	<person id="1011">
		<plan selected="yes">
			<activity type="home" x="-7299062.794080493" y="-1423605.360042843" end_time="07:00:00" >
			</activity>
			<leg mode="car">
			</leg>
			<activity type="shelter" x="1.1416768504233208E7" y="2.181874349809644E7" start_time="08:00:00" end_time="14:00:00" >
			</activity>
		</plan>

	</person>

<!-- ====================================================================== -->

	<person id="1012">
		<plan selected="yes">
			<activity type="home" x="-7299086.190308861" y="-1423570.5592807673" end_time="07:00:00" >
			</activity>
			<leg mode="car">
			</leg>
			<activity type="shelter" x="1.1069207272412876E7" y="2.169411007517969E7" start_time="08:00:00" end_time="14:00:00" >
			</activity>
		</plan>

	</person>

<!-- ====================================================================== -->

	<person id="1013">
		<plan selected="yes">
			<activity type="home" x="-7299085.437335328" y="-1423576.6098341811" end_time="07:00:00" >
			</activity>
			<leg mode="car">
			</leg>
			<activity type="shelter" x="1.1038715391616482E7" y="2.1805581152292464E7" start_time="08:00:00" end_time="14:00:00" >
			</activity>
		</plan>

	</person>

<!-- ====================================================================== -->

	<person id="1014">
		<plan selected="yes">
			<activity type="home" x="-7299117.61813199" y="-1423517.7409129555" end_time="07:00:00" >
			</activity>
			<leg mode="car">
			</leg>
			<activity type="shelter" x="1.064349036830065E7" y="2.3308259905406326E7" start_time="08:00:00" end_time="14:00:00" >
			</activity>
		</plan>

	</person>

<!-- ====================================================================== -->

	<person id="1015">
		<plan selected="yes">
			<activity type="home" x="-7299131.830010686" y="-1423500.686739996" end_time="07:00:00" >
			</activity>
			<leg mode="car">
			</leg>
			<activity type="shelter" x="1.1038715391616482E7" y="2.1805581152292464E7" start_time="08:00:00" end_time="14:00:00" >
			</activity>
		</plan>

	</person>

<!-- ====================================================================== -->

	<person id="1016">
		<plan selected="yes">
			<activity type="home" x="-7299062.496693455" y="-1423605.3848217423" end_time="07:00:00" >
			</activity>
			<leg mode="car">
			</leg>
			<activity type="shelter" x="1.0802588638292294E7" y="2.2698172264347777E7" start_time="08:00:00" end_time="14:00:00" >
			</activity>
		</plan>

	</person>

<!-- ====================================================================== -->

	<person id="1017">
		<plan selected="yes">
			<activity type="home" x="-7299114.681845513" y="-1423527.1820187876" end_time="07:00:00" >
			</activity>
			<leg mode="car">
			</leg>
			<activity type="shelter" x="1.1416768504233208E7" y="2.181874349809644E7" start_time="08:00:00" end_time="14:00:00" >
			</activity>
		</plan>

	</person>

<!-- ====================================================================== -->

	<person id="1018">
		<plan selected="yes">
			<activity type="home" x="-7299036.630210208" y="-1423647.8013951543" end_time="07:00:00" >
			</activity>
			<leg mode="car">
			</leg>
			<activity type="shelter" x="1.1069207272412876E7" y="2.169411007517969E7" start_time="08:00:00" end_time="14:00:00" >
			</activity>
		</plan>

	</person>

<!-- ====================================================================== -->

	<person id="1019">
		<plan selected="yes">
			<activity type="home" x="-7299136.538826361" y="-1423493.1224724327" end_time="07:00:00" >
			</activity>
			<leg mode="car">
			</leg>
			<activity type="shelter" x="1.1416768504233208E7" y="2.181874349809644E7" start_time="08:00:00" end_time="14:00:00" >
			</activity>
		</plan>

	</person>

<!-- ====================================================================== -->

	<person id="102">
		<plan selected="yes">
			<activity type="home" x="-7299100.433053492" y="-1423546.2806923229" end_time="07:00:00" >
			</activity>
			<leg mode="car">
			</leg>
			<activity type="shelter" x="1.1069207272412876E7" y="2.169411007517969E7" start_time="08:00:00" end_time="14:00:00" >
			</activity>
		</plan>

	</person>

<!-- ====================================================================== -->

	<person id="1020">
		<plan selected="yes">
			<activity type="home" x="-7299083.519022229" y="-1423576.738813844" end_time="07:00:00" >
			</activity>
			<leg mode="car">
			</leg>
			<activity type="shelter" x="1.1416768504233208E7" y="2.181874349809644E7" start_time="08:00:00" end_time="14:00:00" >
			</activity>
		</plan>

	</person>

<!-- ====================================================================== -->

	<person id="1021">
		<plan selected="yes">
			<activity type="home" x="-7299094.923795457" y="-1423560.3291131284" end_time="07:00:00" >
			</activity>
			<leg mode="car">
			</leg>
			<activity type="shelter" x="1.1038715391616482E7" y="2.1805581152292464E7" start_time="08:00:00" end_time="14:00:00" >
			</activity>
		</plan>

	</person>

<!-- ====================================================================== -->

	<person id="1022">
		<plan selected="yes">
			<activity type="home" x="-7299113.081856555" y="-1423529.8134932574" end_time="07:00:00" >
			</activity>
			<leg mode="car">
			</leg>
			<activity type="shelter" x="1.1038715391616482E7" y="2.1805581152292464E7" start_time="08:00:00" end_time="14:00:00" >
			</activity>
		</plan>

	</person>

<!-- ====================================================================== -->

	<person id="1023">
		<plan selected="yes">
			<activity type="home" x="-7299111.526687153" y="-1423529.056631673" end_time="07:00:00" >
			</activity>
			<leg mode="car">
			</leg>
			<activity type="shelter" x="1.1038715391616482E7" y="2.1805581152292464E7" start_time="08:00:00" end_time="14:00:00" >
			</activity>
		</plan>

	</person>

<!-- ====================================================================== -->

	<person id="1024">
		<plan selected="yes">
			<activity type="home" x="-7299083.447217296" y="-1423573.8395987698" end_time="07:00:00" >
			</activity>
			<leg mode="car">
			</leg>
			<activity type="shelter" x="1.1038715391616482E7" y="2.1805581152292464E7" start_time="08:00:00" end_time="14:00:00" >
			</activity>
		</plan>

	</person>

<!-- ====================================================================== -->

	<person id="1025">
		<plan selected="yes">
			<activity type="home" x="-7299039.481402098" y="-1423645.342059025" end_time="07:00:00" >
			</activity>
			<leg mode="car">
			</leg>
			<activity type="shelter" x="1.1069207272412876E7" y="2.169411007517969E7" start_time="08:00:00" end_time="14:00:00" >
			</activity>
		</plan>

	</person>

<!-- ====================================================================== -->

	<person id="1026">
		<plan selected="yes">
			<activity type="home" x="-7299123.588900819" y="-1423503.3703191106" end_time="07:00:00" >
			</activity>
			<leg mode="car">
			</leg>
			<activity type="shelter" x="1.1416768504233208E7" y="2.181874349809644E7" start_time="08:00:00" end_time="14:00:00" >
			</activity>
		</plan>

	</person>

<!-- ====================================================================== -->

	<person id="1027">
		<plan selected="yes">
			<activity type="home" x="-7299052.341924277" y="-1423622.9807884227" end_time="07:00:00" >
			</activity>
			<leg mode="car">
			</leg>
			<activity type="shelter" x="1.0802588638292294E7" y="2.2698172264347777E7" start_time="08:00:00" end_time="14:00:00" >
			</activity>
		</plan>

	</person>

<!-- ====================================================================== -->

	<person id="1028">
		<plan selected="yes">
			<activity type="home" x="-7299093.434122116" y="-1423555.5457750317" end_time="07:00:00" >
			</activity>
			<leg mode="car">
			</leg>
			<activity type="shelter" x="1.1069207272412876E7" y="2.169411007517969E7" start_time="08:00:00" end_time="14:00:00" >
			</activity>
		</plan>

	</person>

<!-- ====================================================================== -->

	<person id="1029">
		<plan selected="yes">
			<activity type="home" x="-7299041.051642174" y="-1423642.9808847015" end_time="07:00:00" >
			</activity>
			<leg mode="car">
			</leg>
			<activity type="shelter" x="1.1416768504233208E7" y="2.181874349809644E7" start_time="08:00:00" end_time="14:00:00" >
			</activity>
		</plan>

	</person>

<!-- ====================================================================== -->

	<person id="103">
		<plan selected="yes">
			<activity type="home" x="-7299036.679228895" y="-1423655.8078889833" end_time="07:00:00" >
			</activity>
			<leg mode="car">
			</leg>
			<activity type="shelter" x="1.064349036830065E7" y="2.3308259905406326E7" start_time="08:00:00" end_time="14:00:00" >
			</activity>
		</plan>

	</person>

<!-- ====================================================================== -->

	<person id="1030">
		<plan selected="yes">
			<activity type="home" x="-7299053.316190568" y="-1423626.3383637671" end_time="07:00:00" >
			</activity>
			<leg mode="car">
			</leg>
			<activity type="shelter" x="1.1038715391616482E7" y="2.1805581152292464E7" start_time="08:00:00" end_time="14:00:00" >
			</activity>
		</plan>

	</person>

<!-- ====================================================================== -->

	<person id="1031">
		<plan selected="yes">
			<activity type="home" x="-7299055.420049391" y="-1423621.4517365082" end_time="07:00:00" >
			</activity>
			<leg mode="car">
			</leg>
			<activity type="shelter" x="1.1416768504233208E7" y="2.181874349809644E7" start_time="08:00:00" end_time="14:00:00" >
			</activity>
		</plan>

	</person>

<!-- ====================================================================== -->

	<person id="1032">
		<plan selected="yes">
			<activity type="home" x="-7299136.7910097595" y="-1423490.4087477226" end_time="07:00:00" >
			</activity>
			<leg mode="car">
			</leg>
			<activity type="shelter" x="1.064349036830065E7" y="2.3308259905406326E7" start_time="08:00:00" end_time="14:00:00" >
			</activity>
		</plan>

	</person>

<!-- ====================================================================== -->

	<person id="1033">
		<plan selected="yes">
			<activity type="home" x="-7299050.242990415" y="-1423627.0514047425" end_time="07:00:00" >
			</activity>
			<leg mode="car">
			</leg>
			<activity type="shelter" x="1.064349036830065E7" y="2.3308259905406326E7" start_time="08:00:00" end_time="14:00:00" >
			</activity>
		</plan>

	</person>

<!-- ====================================================================== -->

	<person id="1034">
		<plan selected="yes">
			<activity type="home" x="-7299044.764381576" y="-1423634.9096410202" end_time="07:00:00" >
			</activity>
			<leg mode="car">
			</leg>
			<activity type="shelter" x="1.1069207272412876E7" y="2.169411007517969E7" start_time="08:00:00" end_time="14:00:00" >
			</activity>
		</plan>

	</person>

<!-- ====================================================================== -->

	<person id="1035">
		<plan selected="yes">
			<activity type="home" x="-7299136.750910366" y="-1423487.1916517701" end_time="07:00:00" >
			</activity>
			<leg mode="car">
			</leg>
			<activity type="shelter" x="1.1416768504233208E7" y="2.181874349809644E7" start_time="08:00:00" end_time="14:00:00" >
			</activity>
		</plan>

	</person>

<!-- ====================================================================== -->

	<person id="1036">
		<plan selected="yes">
			<activity type="home" x="-7299086.036572001" y="-1423575.6047087298" end_time="07:00:00" >
			</activity>
			<leg mode="car">
			</leg>
			<activity type="shelter" x="1.064349036830065E7" y="2.3308259905406326E7" start_time="08:00:00" end_time="14:00:00" >
			</activity>
		</plan>

	</person>

<!-- ====================================================================== -->

	<person id="1037">
		<plan selected="yes">
			<activity type="home" x="-7299076.329726935" y="-1423584.6745665623" end_time="07:00:00" >
			</activity>
			<leg mode="car">
			</leg>
			<activity type="shelter" x="1.1416768504233208E7" y="2.181874349809644E7" start_time="08:00:00" end_time="14:00:00" >
			</activity>
		</plan>

	</person>

<!-- ====================================================================== -->

	<person id="1038">
		<plan selected="yes">
			<activity type="home" x="-7299091.766882895" y="-1423560.1509511182" end_time="07:00:00" >
			</activity>
			<leg mode="car">
			</leg>
			<activity type="shelter" x="1.1038715391616482E7" y="2.1805581152292464E7" start_time="08:00:00" end_time="14:00:00" >
			</activity>
		</plan>

	</person>

<!-- ====================================================================== -->

	<person id="1039">
		<plan selected="yes">
			<activity type="home" x="-7299044.444273394" y="-1423642.4037760482" end_time="07:00:00" >
			</activity>
			<leg mode="car">
			</leg>
			<activity type="shelter" x="1.1416768504233208E7" y="2.181874349809644E7" start_time="08:00:00" end_time="14:00:00" >
			</activity>
		</plan>

	</person>

<!-- ====================================================================== -->

	<person id="104">
		<plan selected="yes">
			<activity type="home" x="-7299050.3345853845" y="-1423624.1244548766" end_time="07:00:00" >
			</activity>
			<leg mode="car">
			</leg>
			<activity type="shelter" x="1.0802588638292294E7" y="2.2698172264347777E7" start_time="08:00:00" end_time="14:00:00" >
			</activity>
		</plan>

	</person>

<!-- ====================================================================== -->

	<person id="1040">
		<plan selected="yes">
			<activity type="home" x="-7299060.937643996" y="-1423606.1789366512" end_time="07:00:00" >
			</activity>
			<leg mode="car">
			</leg>
			<activity type="shelter" x="1.064349036830065E7" y="2.3308259905406326E7" start_time="08:00:00" end_time="14:00:00" >
			</activity>
		</plan>

	</person>

<!-- ====================================================================== -->

	<person id="1041">
		<plan selected="yes">
			<activity type="home" x="-7299077.319188727" y="-1423586.4807467952" end_time="07:00:00" >
			</activity>
			<leg mode="car">
			</leg>
			<activity type="shelter" x="1.1416768504233208E7" y="2.181874349809644E7" start_time="08:00:00" end_time="14:00:00" >
			</activity>
		</plan>

	</person>

<!-- ====================================================================== -->

	<person id="1042">
		<plan selected="yes">
			<activity type="home" x="-7299068.682703795" y="-1423600.708928899" end_time="07:00:00" >
			</activity>
			<leg mode="car">
			</leg>
			<activity type="shelter" x="1.1069207272412876E7" y="2.169411007517969E7" start_time="08:00:00" end_time="14:00:00" >
			</activity>
		</plan>

	</person>

<!-- ====================================================================== -->

	<person id="1043">
		<plan selected="yes">
			<activity type="home" x="-7299078.262004927" y="-1423583.412789167" end_time="07:00:00" >
			</activity>
			<leg mode="car">
			</leg>
			<activity type="shelter" x="1.0802588638292294E7" y="2.2698172264347777E7" start_time="08:00:00" end_time="14:00:00" >
			</activity>
		</plan>

	</person>

<!-- ====================================================================== -->

	<person id="1044">
		<plan selected="yes">
			<activity type="home" x="-7299083.507627403" y="-1423573.4130952104" end_time="07:00:00" >
			</activity>
			<leg mode="car">
			</leg>
			<activity type="shelter" x="1.1416768504233208E7" y="2.181874349809644E7" start_time="08:00:00" end_time="14:00:00" >
			</activity>
		</plan>

	</person>

<!-- ====================================================================== -->

	<person id="1045">
		<plan selected="yes">
			<activity type="home" x="-7299038.840887917" y="-1423646.0796232405" end_time="07:00:00" >
			</activity>
			<leg mode="car">
			</leg>
			<activity type="shelter" x="1.064349036830065E7" y="2.3308259905406326E7" start_time="08:00:00" end_time="14:00:00" >
			</activity>
		</plan>

	</person>

<!-- ====================================================================== -->

	<person id="1046">
		<plan selected="yes">
			<activity type="home" x="-7299069.918211413" y="-1423601.5629747896" end_time="07:00:00" >
			</activity>
			<leg mode="car">
			</leg>
			<activity type="shelter" x="1.064349036830065E7" y="2.3308259905406326E7" start_time="08:00:00" end_time="14:00:00" >
			</activity>
		</plan>

	</person>

<!-- ====================================================================== -->

	<person id="1047">
		<plan selected="yes">
			<activity type="home" x="-7299047.403392311" y="-1423639.6834302726" end_time="07:00:00" >
			</activity>
			<leg mode="car">
			</leg>
			<activity type="shelter" x="1.064349036830065E7" y="2.3308259905406326E7" start_time="08:00:00" end_time="14:00:00" >
			</activity>
		</plan>

	</person>

<!-- ====================================================================== -->

	<person id="1048">
		<plan selected="yes">
			<activity type="home" x="-7299097.1681150375" y="-1423550.7054484282" end_time="07:00:00" >
			</activity>
			<leg mode="car">
			</leg>
			<activity type="shelter" x="1.064349036830065E7" y="2.3308259905406326E7" start_time="08:00:00" end_time="14:00:00" >
			</activity>
		</plan>

	</person>

<!-- ====================================================================== -->

	<person id="1049">
		<plan selected="yes">
			<activity type="home" x="-7299036.064848455" y="-1423651.1867494448" end_time="07:00:00" >
			</activity>
			<leg mode="car">
			</leg>
			<activity type="shelter" x="1.1038715391616482E7" y="2.1805581152292464E7" start_time="08:00:00" end_time="14:00:00" >
			</activity>
		</plan>

	</person>

<!-- ====================================================================== -->

	<person id="105">
		<plan selected="yes">
			<activity type="home" x="-7299124.15687972" y="-1423502.8803762647" end_time="07:00:00" >
			</activity>
			<leg mode="car">
			</leg>
			<activity type="shelter" x="1.1069207272412876E7" y="2.169411007517969E7" start_time="08:00:00" end_time="14:00:00" >
			</activity>
		</plan>

	</person>

<!-- ====================================================================== -->

	<person id="1050">
		<plan selected="yes">
			<activity type="home" x="-7299063.395502579" y="-1423604.8211209474" end_time="07:00:00" >
			</activity>
			<leg mode="car">
			</leg>
			<activity type="shelter" x="1.1038715391616482E7" y="2.1805581152292464E7" start_time="08:00:00" end_time="14:00:00" >
			</activity>
		</plan>

	</person>

<!-- ====================================================================== -->

	<person id="1051">
		<plan selected="yes">
			<activity type="home" x="-7299135.609099479" y="-1423490.8586771865" end_time="07:00:00" >
			</activity>
			<leg mode="car">
			</leg>
			<activity type="shelter" x="1.1038715391616482E7" y="2.1805581152292464E7" start_time="08:00:00" end_time="14:00:00" >
			</activity>
		</plan>

	</person>

<!-- ====================================================================== -->

	<person id="1052">
		<plan selected="yes">
			<activity type="home" x="-7299092.541955839" y="-1423560.094552284" end_time="07:00:00" >
			</activity>
			<leg mode="car">
			</leg>
			<activity type="shelter" x="1.1038715391616482E7" y="2.1805581152292464E7" start_time="08:00:00" end_time="14:00:00" >
			</activity>
		</plan>

	</person>

<!-- ====================================================================== -->

	<person id="1053">
		<plan selected="yes">
			<activity type="home" x="-7299074.71362647" y="-1423590.110786658" end_time="07:00:00" >
			</activity>
			<leg mode="car">
			</leg>
			<activity type="shelter" x="1.0802588638292294E7" y="2.2698172264347777E7" start_time="08:00:00" end_time="14:00:00" >
			</activity>
		</plan>

	</person>

<!-- ====================================================================== -->

	<person id="1054">
		<plan selected="yes">
			<activity type="home" x="-7299106.685841651" y="-1423532.7246225516" end_time="07:00:00" >
			</activity>
			<leg mode="car">
			</leg>
			<activity type="shelter" x="1.1416768504233208E7" y="2.181874349809644E7" start_time="08:00:00" end_time="14:00:00" >
			</activity>
		</plan>

	</person>

<!-- ====================================================================== -->

	<person id="1055">
		<plan selected="yes">
			<activity type="home" x="-7299112.838913248" y="-1423522.7745936308" end_time="07:00:00" >
			</activity>
			<leg mode="car">
			</leg>
			<activity type="shelter" x="1.1069207272412876E7" y="2.169411007517969E7" start_time="08:00:00" end_time="14:00:00" >
			</activity>
		</plan>

	</person>

<!-- ====================================================================== -->

	<person id="1056">
		<plan selected="yes">
			<activity type="home" x="-7299070.357976892" y="-1423593.2150065363" end_time="07:00:00" >
			</activity>
			<leg mode="car">
			</leg>
			<activity type="shelter" x="1.1416768504233208E7" y="2.181874349809644E7" start_time="08:00:00" end_time="14:00:00" >
			</activity>
		</plan>

	</person>

<!-- ====================================================================== -->

	<person id="1057">
		<plan selected="yes">
			<activity type="home" x="-7299070.799975984" y="-1423592.914439805" end_time="07:00:00" >
			</activity>
			<leg mode="car">
			</leg>
			<activity type="shelter" x="1.1069207272412876E7" y="2.169411007517969E7" start_time="08:00:00" end_time="14:00:00" >
			</activity>
		</plan>

	</person>

<!-- ====================================================================== -->

	<person id="1058">
		<plan selected="yes">
			<activity type="home" x="-7299091.99951324" y="-1423563.2607187484" end_time="07:00:00" >
			</activity>
			<leg mode="car">
			</leg>
			<activity type="shelter" x="1.1038715391616482E7" y="2.1805581152292464E7" start_time="08:00:00" end_time="14:00:00" >
			</activity>
		</plan>

	</person>

<!-- ====================================================================== -->

	<person id="1059">
		<plan selected="yes">
			<activity type="home" x="-7299137.017923495" y="-1423489.0930779278" end_time="07:00:00" >
			</activity>
			<leg mode="car">
			</leg>
			<activity type="shelter" x="1.1416768504233208E7" y="2.181874349809644E7" start_time="08:00:00" end_time="14:00:00" >
			</activity>
		</plan>

	</person>

<!-- ====================================================================== -->

	<person id="106">
		<plan selected="yes">
			<activity type="home" x="-7299133.67647397" y="-1423495.7638216403" end_time="07:00:00" >
			</activity>
			<leg mode="car">
			</leg>
			<activity type="shelter" x="1.0802588638292294E7" y="2.2698172264347777E7" start_time="08:00:00" end_time="14:00:00" >
			</activity>
		</plan>

	</person>

<!-- ====================================================================== -->

	<person id="1060">
		<plan selected="yes">
			<activity type="home" x="-7299110.00490187" y="-1423526.902359353" end_time="07:00:00" >
			</activity>
			<leg mode="car">